                                   MODFLOW 6
                U.S. GEOLOGICAL SURVEY MODULAR HYDROLOGIC MODEL
                          GROUNDWATER FLOW MODEL (GWF)
                            VERSION 6.1.0 12/12/2019

   MODFLOW 6 compiled Dec 12 2019 13:30:12 with IFORT compiler (ver. 19.0.5)

This software has been approved for release by the U.S. Geological 
Survey (USGS). Although the software has been subjected to rigorous 
review, the USGS reserves the right to update the software as needed 
pursuant to further analysis and review. No warranty, expressed or 
implied, is made by the USGS or the U.S. Government as to the 
functionality of the software and related material nor shall the 
fact of release constitute any such warranty. Furthermore, the 
software is released on condition that neither the USGS nor the U.S. 
Government shall be held liable for any damages resulting from its 
authorized or unauthorized use. Also refer to the USGS Water 
Resources Software User Rights Notice for complete use, copyright, 
and distribution information.


MODFLOW was compiled using uniform precision.
Precision of REAL variables: 15


 OPENED ex2.dis
 FILE TYPE:DIS6                   UNIT 1005   STATUS:OLD                 
 FORMAT:FORMATTED              ACCESS:SEQUENTIAL          
 ACTION:READ                


 OPENED ex2.npf
 FILE TYPE:NPF6                   UNIT 1006   STATUS:OLD                 
 FORMAT:FORMATTED              ACCESS:SEQUENTIAL          
 ACTION:READ                


 OPENED ex2.ic
 FILE TYPE:IC6                    UNIT 1007   STATUS:OLD                 
 FORMAT:FORMATTED              ACCESS:SEQUENTIAL          
 ACTION:READ                


 OPENED ex2.sto
 FILE TYPE:STO6                   UNIT 1008   STATUS:OLD                 
 FORMAT:FORMATTED              ACCESS:SEQUENTIAL          
 ACTION:READ                


 OPENED ex2.chd
 FILE TYPE:CHD6                   UNIT 1009   STATUS:OLD                 
 FORMAT:FORMATTED              ACCESS:SEQUENTIAL          
 ACTION:READ                


 OPENED ex2.wel
 FILE TYPE:WEL6                   UNIT 1010   STATUS:OLD                 
 FORMAT:FORMATTED              ACCESS:SEQUENTIAL          
 ACTION:READ                


 OPENED ex2.oc
 FILE TYPE:OC6                    UNIT 1011   STATUS:OLD                 
 FORMAT:FORMATTED              ACCESS:SEQUENTIAL          
 ACTION:READ                


 DIS -- STRUCTURED GRID DISCRETIZATION PACKAGE, VERSION 2 : 3/27/2014 - INPUT READ FROM UNIT 1005


 PROCESSING DISCRETIZATION OPTIONS
    MODEL LENGTH UNIT IS METERS
 END OF DISCRETIZATION OPTIONS
 PROCESSING DISCRETIZATION DIMENSIONS
    NLAY =       2
    NROW =      20
    NCOL =      20
 END OF DISCRETIZATION DIMENSIONS
 PROCESSING GRIDDATA

                     DELR =   50.00000    

                     DELC =   50.00000    

 TOP ELEVATION OF LAYER 1 =   100.0000    

   MODEL LAYER BOTTOM EL. =   80.00000     FOR LAYER 1

   MODEL LAYER BOTTOM EL. =   60.00000     FOR LAYER 2
 END PROCESSING GRIDDATA

 NPF -- NODE PROPERTY FLOW PACKAGE, VERSION 1, 3/30/2015 INPUT READ FROM UNIT 1006


 PROCESSING NPF OPTIONS
    CELL-BY-CELL FLOW INFORMATION WILL BE SAVED TO BINARY FILE WHENEVER ICBCFL IS NOT ZERO.
 END OF NPF OPTIONS

 WEL   -- WEL PACKAGE, VERSION 8, 2/22/2014 INPUT READ FROM UNIT 1010

 PROCESSING WEL OPTIONS
    WEL BOUNDARIES HAVE NAMES IN LAST COLUMN.
    FLOWS WILL BE SAVED TO BUDGET FILE SPECIFIED IN OUTPUT CONTROL
 END OF WEL OPTIONS

 PROCESSING WEL DIMENSIONS
    MAXBOUND =       2
 END OF WEL DIMENSIONS

 CHD   -- CHD PACKAGE, VERSION 8, 2/22/2014 INPUT READ FROM UNIT 1009

 PROCESSING CHD OPTIONS
 END OF CHD OPTIONS

 PROCESSING CHD DIMENSIONS
    MAXBOUND =      20
 END OF CHD DIMENSIONS

 IC -- INITIAL CONDITIONS PACKAGE, VERSION 8, 3/28/2015 INPUT READ FROM UNIT 1007
 PROCESSING GRIDDATA

     INITIAL HEAD =   99.00000    
 END PROCESSING GRIDDATA
 PROCESSING GRIDDATA

                ICELLTYPE = 1

                        K =  0.3500000E-03 FOR LAYER 1

                        K =  0.7000000E-04 FOR LAYER 2
 K33 not provided.  Assuming K33 = K.
 K22 not provided.  Assuming K22 = K.
 END PROCESSING GRIDDATA

 STO -- STORAGE PACKAGE, VERSION 1, 5/19/2014 INPUT READ FROM UNIT 1008


 PROCESSING STORAGE OPTIONS
    CELL-BY-CELL FLOW INFORMATION WILL BE SAVED TO BINARY FILE WHENEVER ICBCFL IS NOT ZERO.
 END OF STORAGE OPTIONS
 PROCESSING GRIDDATA

                 ICONVERT = 1 FOR LAYER 1

                 ICONVERT = 0 FOR LAYER 2

         SPECIFIC STORAGE =  0.1000000E-04

           SPECIFIC YIELD =  0.1500000    
 END PROCESSING GRIDDATA
    BINARY GRID INFORMATION WILL BE WRITTEN TO:
      UNIT NUMBER: 1013
      FILE NAME: C:\thomas\modflow\flopy\sim\ex2\ex2.dis.grb

 OPENED C:\thomas\modflow\flopy\sim\ex2\ex2.dis.grb
 FILE TYPE:DATA(BINARY)   UNIT 1013   STATUS:REPLACE             
 FORMAT:UNFORMATTED            ACCESS:STREAM              
 ACTION:READWRITE           

      THE LAST TIME STEP WILL BE PRINTED
      THE LAST TIME STEP WILL BE PRINTED
 PROCESSING OC OPTIONS
    BUDGET INFORMATION WILL BE WRITTEN TO:
      UNIT NUMBER: 1014
      FILE NAME: ex2.cbc

 OPENED ex2.cbc
 FILE TYPE:DATA(BINARY)   UNIT 1014   STATUS:REPLACE             
 FORMAT:UNFORMATTED            ACCESS:STREAM              
 ACTION:READWRITE           

    HEAD INFORMATION WILL BE WRITTEN TO:
      UNIT NUMBER: 1015
      FILE NAME: ex2.hds

 OPENED ex2.hds
 FILE TYPE:DATA(BINARY)   UNIT 1015   STATUS:REPLACE             
 FORMAT:UNFORMATTED            ACCESS:STREAM              
 ACTION:READWRITE           

 END OF OC OPTIONS

 BEGIN READING OUTPUT CONTROL FOR STRESS PERIOD 1
      ALL TIME STEPS WILL BE SAVED
      ALL TIME STEPS WILL BE SAVED
      ALL TIME STEPS WILL BE PRINTED
      ALL TIME STEPS WILL BE PRINTED

 END READING OUTPUT CONTROL FOR STRESS PERIOD 1


 UPDATING STORAGE VALUES
 END UPDATING STORAGE VALUES


 STRESS PERIOD 1 IS STEADY-STATE

 UBDSV1 SAVING           STO-SS ON UNIT   1014 AT TIME STEP      1, STRESS PERIOD      1
 UBDSV1 SAVING           STO-SY ON UNIT   1014 AT TIME STEP      1, STRESS PERIOD      1
 UBDSV1 SAVING     FLOW-JA-FACE ON UNIT   1014 AT TIME STEP      1, STRESS PERIOD      1
 UBDSV06 SAVING              WEL IN MODEL EX2              PACKAGE EX2             CONNECTED TO MODEL EX2              PACKAGE WEL_0            ON UNIT   1014 AT TIME STEP      1, STRESS PERIOD      1
1
  HEAD IN LAYER   1 AT END OF TIME STEP   1 IN STRESS PERIOD    1
  ---------------------------------------------------------------------------

            1           2           3           4           5           6           7           8           9          10
           11          12          13          14          15          16          17          18          19          20
 ........................................................................................................................
   1    95.10       95.15       95.21       95.26       95.32       95.38       95.45       95.53       95.62       95.71    
        95.81       95.92       96.03       96.14       96.24       96.33       96.41       96.48       96.52       96.54    
   2    95.10       95.15       95.20       95.26       95.31       95.37       95.44       95.52       95.61       95.70    
        95.81       95.92       96.03       96.15       96.25       96.35       96.43       96.50       96.54       96.56    
   3    95.10       95.15       95.20       95.25       95.30       95.36       95.42       95.50       95.59       95.69    
        95.80       95.92       96.04       96.16       96.27       96.37       96.46       96.53       96.58       96.61    
   4    95.10       95.15       95.20       95.24       95.29       95.34       95.40       95.47       95.55       95.66    
        95.78       95.91       96.04       96.17       96.30       96.41       96.51       96.59       96.65       96.68    
   5    95.10       95.15       95.19       95.23       95.27       95.31       95.36       95.41       95.50       95.61    
        95.75       95.90       96.05       96.20       96.34       96.47       96.58       96.68       96.75       96.78    
   6    95.10       95.15       95.19       95.22       95.25       95.28       95.30       95.34       95.41       95.54    
        95.71       95.88       96.06       96.22       96.38       96.53       96.67       96.79       96.87       96.92    
   7    95.10       95.15       95.19       95.22       95.24       95.25       95.24       95.23       95.26       95.44    
        95.65       95.87       96.07       96.26       96.44       96.61       96.77       96.92       97.04       97.11    
   8    95.10       95.16       95.20       95.23       95.24       95.22       95.17       95.07       94.97       95.29    
        95.60       95.86       96.09       96.30       96.50       96.70       96.89       97.09       97.25       97.36    
   9    95.10       95.18       95.23       95.26       95.27       95.24       95.15       94.91       94.21       95.13    
        95.58       95.88       96.13       96.35       96.56       96.78       97.02       97.28       97.53       97.71    
  10    95.10       95.23       95.29       95.32       95.33       95.31       95.26       95.17       95.07       95.39    
        95.70       95.96       96.20       96.41       96.62       96.84       97.11       97.47       97.86       98.22    
  11    95.28       95.33       95.37       95.40       95.42       95.42       95.42       95.42       95.46       95.63    
        95.85       96.07       96.28       96.47       96.65       96.85       97.13       97.61       98.22       99.10    
  12    95.41       95.44       95.46       95.49       95.52       95.55       95.57       95.62       95.69       95.83    
        96.01       96.19       96.37       96.53       96.67       96.78       96.94       97.60       98.32       99.10    
  13    95.52       95.53       95.56       95.59       95.62       95.66       95.71       95.78       95.87       96.00    
        96.15       96.31       96.47       96.62       96.71       96.69       96.41       97.51       98.35       99.10    
  14    95.61       95.62       95.65       95.68       95.72       95.77       95.83       95.91       96.01       96.14    
        96.28       96.44       96.59       96.75       96.89       97.00       97.16       97.79       98.45       99.10    
  15    95.69       95.70       95.72       95.76       95.80       95.86       95.93       96.02       96.13       96.25    
        96.40       96.55       96.72       96.89       97.08       97.29       97.57       98.03       98.56       99.10    
  16    95.75       95.77       95.79       95.83       95.88       95.94       96.02       96.11       96.22       96.35    
        96.50       96.66       96.84       97.03       97.24       97.49       97.80       98.20       98.64       99.10    
  17    95.81       95.82       95.85       95.88       95.94       96.00       96.08       96.18       96.30       96.43    
        96.58       96.75       96.93       97.14       97.37       97.64       97.95       98.30       98.69       99.10    
  18    95.85       95.86       95.89       95.93       95.98       96.05       96.13       96.23       96.35       96.49    
        96.64       96.81       97.01       97.22       97.46       97.73       98.04       98.37       98.73       99.10    
  19    95.88       95.89       95.92       95.96       96.01       96.08       96.17       96.27       96.39       96.53    
        96.68       96.86       97.06       97.28       97.52       97.79       98.09       98.41       98.75       99.10    
  20    95.89       95.90       95.93       95.97       96.03       96.10       96.18       96.29       96.41       96.55    
        96.70       96.88       97.08       97.30       97.55       97.82       98.11       98.43       98.76       99.10    
1
  HEAD IN LAYER   2 AT END OF TIME STEP   1 IN STRESS PERIOD    1
  ---------------------------------------------------------------------------

            1           2           3           4           5           6           7           8           9          10
           11          12          13          14          15          16          17          18          19          20
 ........................................................................................................................
   1    95.10       95.15       95.21       95.26       95.32       95.38       95.45       95.53       95.62       95.71    
        95.81       95.92       96.03       96.14       96.24       96.33       96.41       96.48       96.52       96.54    
   2    95.10       95.15       95.20       95.26       95.31       95.37       95.44       95.52       95.61       95.70    
        95.81       95.92       96.03       96.15       96.25       96.35       96.43       96.50       96.54       96.56    
   3    95.10       95.15       95.20       95.25       95.30       95.36       95.42       95.50       95.59       95.69    
        95.80       95.92       96.04       96.16       96.27       96.37       96.46       96.53       96.58       96.61    
   4    95.10       95.15       95.20       95.24       95.29       95.34       95.40       95.47       95.55       95.66    
        95.78       95.91       96.04       96.17       96.30       96.41       96.51       96.59       96.65       96.68    
   5    95.10       95.15       95.19       95.23       95.27       95.31       95.36       95.41       95.50       95.61    
        95.75       95.90       96.05       96.20       96.34       96.47       96.58       96.68       96.75       96.78    
   6    95.10       95.15       95.19       95.22       95.25       95.28       95.30       95.34       95.41       95.54    
        95.71       95.88       96.06       96.22       96.38       96.53       96.67       96.79       96.87       96.92    
   7    95.10       95.15       95.19       95.22       95.24       95.25       95.24       95.23       95.26       95.44    
        95.65       95.87       96.07       96.26       96.44       96.61       96.77       96.92       97.04       97.11    
   8    95.11       95.16       95.20       95.23       95.24       95.22       95.17       95.07       94.98       95.29    
        95.60       95.86       96.09       96.30       96.50       96.70       96.89       97.09       97.25       97.36    
   9    95.11       95.18       95.23       95.26       95.27       95.24       95.15       94.92       94.44       95.14    
        95.58       95.88       96.13       96.35       96.56       96.78       97.02       97.27       97.52       97.70    
  10    95.12       95.23       95.29       95.32       95.33       95.31       95.26       95.17       95.08       95.39    
        95.70       95.96       96.20       96.41       96.62       96.84       97.11       97.47       97.86       98.21    
  11    95.28       95.33       95.37       95.40       95.42       95.42       95.42       95.42       95.46       95.63    
        95.85       96.07       96.28       96.47       96.65       96.85       97.12       97.60       98.21       98.96    
  12    95.41       95.44       95.46       95.49       95.52       95.55       95.57       95.62       95.69       95.83    
        96.01       96.19       96.37       96.53       96.67       96.78       96.88       97.59       98.31       99.03    
  13    95.52       95.53       95.56       95.59       95.62       95.66       95.71       95.78       95.87       96.00    
        96.15       96.31       96.47       96.62       96.71       96.62       95.34       97.44       98.34       99.03    
  14    95.61       95.62       95.65       95.68       95.72       95.77       95.83       95.91       96.01       96.14    
        96.28       96.44       96.59       96.75       96.88       96.99       97.09       97.78       98.44       99.04    
  15    95.69       95.70       95.72       95.76       95.80       95.86       95.93       96.02       96.13       96.25    
        96.39       96.55       96.72       96.89       97.08       97.29       97.57       98.03       98.55       99.05    
  16    95.75       95.77       95.79       95.83       95.88       95.94       96.02       96.11       96.22       96.35    
        96.50       96.66       96.83       97.03       97.24       97.49       97.80       98.19       98.63       99.06    
  17    95.81       95.82       95.85       95.88       95.94       96.00       96.08       96.18       96.30       96.43    
        96.58       96.75       96.93       97.14       97.37       97.64       97.95       98.30       98.69       99.06    
  18    95.85       95.86       95.89       95.93       95.98       96.05       96.13       96.23       96.35       96.49    
        96.64       96.81       97.01       97.22       97.46       97.73       98.04       98.37       98.73       99.07    
  19    95.88       95.89       95.92       95.96       96.01       96.08       96.17       96.27       96.39       96.53    
        96.68       96.86       97.06       97.28       97.52       97.79       98.09       98.41       98.75       99.07    
  20    95.89       95.90       95.93       95.97       96.03       96.10       96.18       96.29       96.41       96.55    
        96.70       96.88       97.08       97.30       97.55       97.82       98.11       98.43       98.76       99.07    

 HEAD WILL BE SAVED ON UNIT 1015 AT END OF TIME STEP    1, STRESS PERIOD    1


  VOLUME BUDGET FOR ENTIRE MODEL AT END OF TIME STEP    1, STRESS PERIOD   1
  ---------------------------------------------------------------------------------------------------

     CUMULATIVE VOLUME      L**3       RATES FOR THIS TIME STEP      L**3/T          PACKAGE NAME    
     ------------------                 ------------------------                     ----------------

           IN:                                      IN:
           ---                                      ---
              STO-SS =           0.0000                STO-SS =           0.0000     STORAGE         
              STO-SY =           0.0000                STO-SY =           0.0000     STORAGE         
                 WEL =           0.0000                   WEL =           0.0000     WEL_0           
                 CHD =       5.0197E-03                   CHD =       5.0197E-02     CHD_0           

            TOTAL IN =       5.0197E-03              TOTAL IN =       5.0197E-02

          OUT:                                     OUT:
          ----                                     ----
              STO-SS =           0.0000                STO-SS =           0.0000     STORAGE         
              STO-SY =           0.0000                STO-SY =           0.0000     STORAGE         
                 WEL =       4.5000E-03                   WEL =       4.5000E-02     WEL_0           
                 CHD =       5.1877E-04                   CHD =       5.1877E-03     CHD_0           

           TOTAL OUT =       5.0188E-03             TOTAL OUT =       5.0188E-02

            IN - OUT =       9.5165E-07              IN - OUT =       9.5165E-06

 PERCENT DISCREPANCY =           0.02     PERCENT DISCREPANCY =           0.02




         TIME SUMMARY AT END OF TIME STEP    1 IN STRESS PERIOD    1
                    SECONDS     MINUTES      HOURS       DAYS        YEARS
                    -----------------------------------------------------------
   TIME STEP LENGTH 0.10000     1.66667E-03 2.77778E-05 1.15741E-06 3.16881E-09
 STRESS PERIOD TIME 0.10000     1.66667E-03 2.77778E-05 1.15741E-06 3.16881E-09
         TOTAL TIME 0.10000     1.66667E-03 2.77778E-05 1.15741E-06 3.16881E-09
 UBDSV1 SAVING           STO-SS ON UNIT   1014 AT TIME STEP      2, STRESS PERIOD      1
 UBDSV1 SAVING           STO-SY ON UNIT   1014 AT TIME STEP      2, STRESS PERIOD      1
 UBDSV1 SAVING     FLOW-JA-FACE ON UNIT   1014 AT TIME STEP      2, STRESS PERIOD      1
 UBDSV06 SAVING              WEL IN MODEL EX2              PACKAGE EX2             CONNECTED TO MODEL EX2              PACKAGE WEL_0            ON UNIT   1014 AT TIME STEP      2, STRESS PERIOD      1
1
  HEAD IN LAYER   1 AT END OF TIME STEP   2 IN STRESS PERIOD    1
  ---------------------------------------------------------------------------

            1           2           3           4           5           6           7           8           9          10
           11          12          13          14          15          16          17          18          19          20
 ........................................................................................................................
   1    95.10       95.15       95.21       95.26       95.32       95.38       95.45       95.53       95.62       95.71    
        95.81       95.92       96.03       96.14       96.24       96.33       96.41       96.48       96.52       96.54    
   2    95.10       95.15       95.20       95.26       95.31       95.37       95.44       95.52       95.61       95.70    
        95.81       95.92       96.03       96.15       96.25       96.35       96.43       96.50       96.54       96.56    
   3    95.10       95.15       95.20       95.25       95.30       95.36       95.42       95.50       95.59       95.69    
        95.80       95.92       96.04       96.16       96.27       96.37       96.46       96.53       96.58       96.61    
   4    95.10       95.15       95.20       95.24       95.29       95.34       95.40       95.47       95.55       95.66    
        95.78       95.91       96.04       96.17       96.30       96.41       96.51       96.59       96.65       96.68    
   5    95.10       95.15       95.19       95.23       95.27       95.31       95.36       95.41       95.50       95.61    
        95.75       95.90       96.05       96.20       96.34       96.47       96.58       96.68       96.75       96.78    
   6    95.10       95.15       95.19       95.22       95.25       95.28       95.30       95.34       95.41       95.54    
        95.71       95.88       96.06       96.22       96.38       96.53       96.67       96.79       96.87       96.92    
   7    95.10       95.15       95.19       95.22       95.24       95.24       95.24       95.23       95.26       95.44    
        95.65       95.87       96.07       96.26       96.44       96.61       96.77       96.92       97.04       97.11    
   8    95.10       95.16       95.20       95.23       95.24       95.22       95.17       95.07       94.97       95.29    
        95.60       95.86       96.09       96.30       96.50       96.70       96.89       97.09       97.25       97.36    
   9    95.10       95.18       95.23       95.26       95.27       95.24       95.15       94.91       94.21       95.13    
        95.58       95.88       96.13       96.35       96.56       96.78       97.02       97.28       97.53       97.71    
  10    95.10       95.23       95.29       95.32       95.33       95.31       95.26       95.17       95.07       95.39    
        95.70       95.96       96.20       96.41       96.62       96.84       97.11       97.47       97.86       98.22    
  11    95.28       95.33       95.37       95.40       95.42       95.42       95.42       95.42       95.46       95.63    
        95.85       96.07       96.28       96.47       96.65       96.85       97.13       97.61       98.22       99.10    
  12    95.41       95.44       95.46       95.49       95.52       95.55       95.57       95.62       95.69       95.83    
        96.01       96.19       96.37       96.53       96.67       96.78       96.94       97.60       98.32       99.10    
  13    95.52       95.53       95.56       95.59       95.62       95.66       95.71       95.78       95.87       96.00    
        96.15       96.31       96.47       96.62       96.71       96.69       96.41       97.51       98.35       99.10    
  14    95.61       95.62       95.65       95.68       95.72       95.77       95.83       95.91       96.01       96.14    
        96.28       96.44       96.59       96.75       96.89       97.00       97.16       97.79       98.45       99.10    
  15    95.69       95.70       95.72       95.76       95.80       95.86       95.93       96.02       96.13       96.25    
        96.40       96.55       96.72       96.89       97.08       97.29       97.57       98.03       98.56       99.10    
  16    95.75       95.77       95.79       95.83       95.88       95.94       96.02       96.11       96.22       96.35    
        96.50       96.66       96.84       97.03       97.24       97.49       97.80       98.20       98.64       99.10    
  17    95.81       95.82       95.85       95.88       95.94       96.00       96.08       96.18       96.30       96.43    
        96.58       96.75       96.93       97.14       97.37       97.64       97.95       98.30       98.69       99.10    
  18    95.85       95.86       95.89       95.93       95.98       96.05       96.13       96.23       96.35       96.49    
        96.64       96.81       97.01       97.22       97.46       97.73       98.04       98.37       98.73       99.10    
  19    95.88       95.89       95.92       95.96       96.01       96.08       96.17       96.27       96.39       96.53    
        96.68       96.86       97.06       97.28       97.52       97.79       98.09       98.41       98.75       99.10    
  20    95.89       95.90       95.93       95.97       96.03       96.10       96.18       96.29       96.41       96.55    
        96.70       96.88       97.08       97.30       97.55       97.82       98.11       98.43       98.76       99.10    
1
  HEAD IN LAYER   2 AT END OF TIME STEP   2 IN STRESS PERIOD    1
  ---------------------------------------------------------------------------

            1           2           3           4           5           6           7           8           9          10
           11          12          13          14          15          16          17          18          19          20
 ........................................................................................................................
   1    95.10       95.15       95.21       95.26       95.32       95.38       95.45       95.53       95.62       95.71    
        95.81       95.92       96.03       96.14       96.24       96.33       96.41       96.48       96.52       96.54    
   2    95.10       95.15       95.20       95.26       95.31       95.37       95.44       95.52       95.61       95.70    
        95.81       95.92       96.03       96.15       96.25       96.35       96.43       96.50       96.54       96.56    
   3    95.10       95.15       95.20       95.25       95.30       95.36       95.42       95.50       95.59       95.69    
        95.80       95.92       96.04       96.16       96.27       96.37       96.46       96.53       96.58       96.61    
   4    95.10       95.15       95.20       95.24       95.29       95.34       95.40       95.47       95.55       95.66    
        95.78       95.91       96.04       96.17       96.30       96.41       96.51       96.59       96.65       96.68    
   5    95.10       95.15       95.19       95.23       95.27       95.31       95.36       95.41       95.50       95.61    
        95.75       95.90       96.05       96.20       96.34       96.47       96.58       96.68       96.75       96.78    
   6    95.10       95.15       95.19       95.22       95.25       95.28       95.30       95.34       95.41       95.54    
        95.71       95.88       96.06       96.22       96.38       96.53       96.67       96.79       96.87       96.92    
   7    95.10       95.15       95.19       95.22       95.24       95.24       95.24       95.23       95.26       95.44    
        95.65       95.87       96.07       96.26       96.44       96.61       96.77       96.92       97.04       97.11    
   8    95.11       95.16       95.20       95.23       95.24       95.22       95.17       95.07       94.98       95.29    
        95.60       95.86       96.09       96.30       96.50       96.70       96.89       97.09       97.25       97.36    
   9    95.11       95.18       95.23       95.26       95.27       95.24       95.15       94.92       94.44       95.14    
        95.58       95.88       96.13       96.35       96.56       96.78       97.02       97.27       97.52       97.70    
  10    95.12       95.23       95.29       95.32       95.33       95.31       95.26       95.17       95.08       95.39    
        95.70       95.96       96.20       96.41       96.62       96.84       97.11       97.47       97.86       98.21    
  11    95.28       95.33       95.37       95.40       95.42       95.42       95.42       95.42       95.46       95.63    
        95.85       96.07       96.28       96.47       96.65       96.85       97.12       97.60       98.21       98.96    
  12    95.41       95.44       95.46       95.49       95.52       95.55       95.57       95.62       95.69       95.83    
        96.01       96.19       96.37       96.53       96.67       96.78       96.88       97.59       98.31       99.03    
  13    95.52       95.53       95.56       95.59       95.62       95.66       95.71       95.78       95.87       96.00    
        96.15       96.31       96.47       96.62       96.71       96.62       95.34       97.44       98.34       99.03    
  14    95.61       95.62       95.65       95.68       95.72       95.77       95.83       95.91       96.01       96.14    
        96.28       96.44       96.59       96.75       96.88       96.99       97.09       97.78       98.44       99.04    
  15    95.69       95.70       95.72       95.76       95.80       95.86       95.93       96.02       96.13       96.25    
        96.40       96.55       96.72       96.89       97.08       97.29       97.57       98.03       98.55       99.05    
  16    95.75       95.77       95.79       95.83       95.88       95.94       96.02       96.11       96.22       96.35    
        96.50       96.66       96.84       97.03       97.24       97.49       97.80       98.19       98.63       99.06    
  17    95.81       95.82       95.85       95.88       95.94       96.00       96.08       96.18       96.30       96.43    
        96.58       96.75       96.93       97.14       97.37       97.64       97.95       98.30       98.69       99.06    
  18    95.85       95.86       95.89       95.93       95.98       96.05       96.13       96.23       96.35       96.49    
        96.64       96.81       97.01       97.22       97.46       97.73       98.04       98.37       98.73       99.07    
  19    95.88       95.89       95.92       95.96       96.01       96.08       96.17       96.27       96.39       96.53    
        96.68       96.86       97.06       97.28       97.52       97.79       98.09       98.41       98.75       99.07    
  20    95.89       95.90       95.93       95.97       96.03       96.10       96.18       96.29       96.41       96.55    
        96.70       96.88       97.08       97.30       97.55       97.82       98.11       98.43       98.76       99.07    

 HEAD WILL BE SAVED ON UNIT 1015 AT END OF TIME STEP    2, STRESS PERIOD    1


  VOLUME BUDGET FOR ENTIRE MODEL AT END OF TIME STEP    2, STRESS PERIOD   1
  ---------------------------------------------------------------------------------------------------

     CUMULATIVE VOLUME      L**3       RATES FOR THIS TIME STEP      L**3/T          PACKAGE NAME    
     ------------------                 ------------------------                     ----------------

           IN:                                      IN:
           ---                                      ---
              STO-SS =           0.0000                STO-SS =           0.0000     STORAGE         
              STO-SY =           0.0000                STO-SY =           0.0000     STORAGE         
                 WEL =           0.0000                   WEL =           0.0000     WEL_0           
                 CHD =       1.0039E-02                   CHD =       5.0197E-02     CHD_0           

            TOTAL IN =       1.0039E-02              TOTAL IN =       5.0197E-02

          OUT:                                     OUT:
          ----                                     ----
              STO-SS =           0.0000                STO-SS =           0.0000     STORAGE         
              STO-SY =           0.0000                STO-SY =           0.0000     STORAGE         
                 WEL =       9.0000E-03                   WEL =       4.5000E-02     WEL_0           
                 CHD =       1.0374E-03                   CHD =       5.1866E-03     CHD_0           

           TOTAL OUT =       1.0037E-02             TOTAL OUT =       5.0187E-02

            IN - OUT =       1.9592E-06              IN - OUT =       1.0076E-05

 PERCENT DISCREPANCY =           0.02     PERCENT DISCREPANCY =           0.02




         TIME SUMMARY AT END OF TIME STEP    2 IN STRESS PERIOD    1
                    SECONDS     MINUTES      HOURS       DAYS        YEARS
                    -----------------------------------------------------------
   TIME STEP LENGTH 0.10000     1.66667E-03 2.77778E-05 1.15741E-06 3.16881E-09
 STRESS PERIOD TIME 0.20000     3.33333E-03 5.55556E-05 2.31481E-06 6.33762E-09
         TOTAL TIME 0.20000     3.33333E-03 5.55556E-05 2.31481E-06 6.33762E-09
 UBDSV1 SAVING           STO-SS ON UNIT   1014 AT TIME STEP      3, STRESS PERIOD      1
 UBDSV1 SAVING           STO-SY ON UNIT   1014 AT TIME STEP      3, STRESS PERIOD      1
 UBDSV1 SAVING     FLOW-JA-FACE ON UNIT   1014 AT TIME STEP      3, STRESS PERIOD      1
 UBDSV06 SAVING              WEL IN MODEL EX2              PACKAGE EX2             CONNECTED TO MODEL EX2              PACKAGE WEL_0            ON UNIT   1014 AT TIME STEP      3, STRESS PERIOD      1
1
  HEAD IN LAYER   1 AT END OF TIME STEP   3 IN STRESS PERIOD    1
  ---------------------------------------------------------------------------

            1           2           3           4           5           6           7           8           9          10
           11          12          13          14          15          16          17          18          19          20
 ........................................................................................................................
   1    95.10       95.15       95.21       95.26       95.32       95.38       95.45       95.53       95.62       95.71    
        95.81       95.92       96.03       96.14       96.24       96.33       96.41       96.48       96.52       96.54    
   2    95.10       95.15       95.20       95.26       95.31       95.37       95.44       95.52       95.61       95.70    
        95.81       95.92       96.03       96.15       96.25       96.35       96.43       96.50       96.54       96.56    
   3    95.10       95.15       95.20       95.25       95.30       95.36       95.42       95.50       95.59       95.69    
        95.80       95.92       96.04       96.16       96.27       96.37       96.46       96.53       96.58       96.61    
   4    95.10       95.15       95.20       95.24       95.29       95.34       95.40       95.47       95.55       95.66    
        95.78       95.91       96.04       96.17       96.30       96.41       96.51       96.59       96.65       96.68    
   5    95.10       95.15       95.19       95.23       95.27       95.31       95.36       95.41       95.50       95.61    
        95.75       95.90       96.05       96.20       96.34       96.47       96.58       96.68       96.75       96.78    
   6    95.10       95.15       95.19       95.22       95.25       95.28       95.30       95.34       95.41       95.54    
        95.71       95.88       96.06       96.22       96.38       96.53       96.67       96.79       96.87       96.92    
   7    95.10       95.15       95.19       95.22       95.24       95.24       95.24       95.23       95.26       95.44    
        95.65       95.87       96.07       96.26       96.44       96.61       96.77       96.92       97.04       97.11    
   8    95.10       95.16       95.20       95.23       95.24       95.22       95.17       95.07       94.97       95.29    
        95.60       95.86       96.09       96.30       96.50       96.70       96.89       97.09       97.25       97.36    
   9    95.10       95.18       95.23       95.26       95.27       95.24       95.15       94.91       94.21       95.13    
        95.58       95.88       96.13       96.35       96.56       96.78       97.02       97.28       97.53       97.71    
  10    95.10       95.23       95.29       95.32       95.33       95.31       95.26       95.17       95.07       95.39    
        95.70       95.96       96.20       96.41       96.62       96.84       97.11       97.47       97.86       98.22    
  11    95.28       95.33       95.37       95.40       95.42       95.42       95.42       95.42       95.46       95.63    
        95.85       96.07       96.28       96.47       96.65       96.85       97.13       97.61       98.22       99.10    
  12    95.41       95.44       95.46       95.49       95.52       95.55       95.57       95.62       95.69       95.83    
        96.01       96.19       96.37       96.53       96.67       96.78       96.94       97.60       98.32       99.10    
  13    95.52       95.53       95.56       95.59       95.62       95.66       95.71       95.78       95.87       96.00    
        96.15       96.31       96.47       96.62       96.71       96.69       96.41       97.51       98.35       99.10    
  14    95.61       95.62       95.65       95.68       95.72       95.77       95.83       95.91       96.01       96.14    
        96.28       96.44       96.59       96.75       96.89       97.00       97.16       97.79       98.45       99.10    
  15    95.69       95.70       95.72       95.76       95.80       95.86       95.93       96.02       96.13       96.25    
        96.40       96.55       96.72       96.89       97.08       97.29       97.57       98.03       98.56       99.10    
  16    95.75       95.77       95.79       95.83       95.88       95.94       96.02       96.11       96.22       96.35    
        96.50       96.66       96.84       97.03       97.24       97.49       97.80       98.20       98.64       99.10    
  17    95.81       95.82       95.85       95.88       95.94       96.00       96.08       96.18       96.30       96.43    
        96.58       96.75       96.93       97.14       97.37       97.64       97.95       98.30       98.69       99.10    
  18    95.85       95.86       95.89       95.93       95.98       96.05       96.13       96.23       96.35       96.49    
        96.64       96.81       97.01       97.22       97.46       97.73       98.04       98.37       98.73       99.10    
  19    95.88       95.89       95.92       95.96       96.01       96.08       96.17       96.27       96.39       96.53    
        96.68       96.86       97.06       97.28       97.52       97.79       98.09       98.41       98.75       99.10    
  20    95.89       95.90       95.93       95.97       96.03       96.10       96.18       96.29       96.41       96.55    
        96.70       96.88       97.08       97.30       97.55       97.82       98.11       98.43       98.76       99.10    
1
  HEAD IN LAYER   2 AT END OF TIME STEP   3 IN STRESS PERIOD    1
  ---------------------------------------------------------------------------

            1           2           3           4           5           6           7           8           9          10
           11          12          13          14          15          16          17          18          19          20
 ........................................................................................................................
   1    95.10       95.15       95.21       95.26       95.32       95.38       95.45       95.53       95.62       95.71    
        95.81       95.92       96.03       96.14       96.24       96.33       96.41       96.48       96.52       96.54    
   2    95.10       95.15       95.20       95.26       95.31       95.37       95.44       95.52       95.61       95.70    
        95.81       95.92       96.03       96.15       96.25       96.35       96.43       96.50       96.54       96.56    
   3    95.10       95.15       95.20       95.25       95.30       95.36       95.42       95.50       95.59       95.69    
        95.80       95.92       96.04       96.16       96.27       96.37       96.46       96.53       96.58       96.61    
   4    95.10       95.15       95.20       95.24       95.29       95.34       95.40       95.47       95.55       95.66    
        95.78       95.91       96.04       96.17       96.30       96.41       96.51       96.59       96.65       96.68    
   5    95.10       95.15       95.19       95.23       95.27       95.31       95.36       95.41       95.50       95.61    
        95.75       95.90       96.05       96.20       96.34       96.47       96.58       96.68       96.75       96.78    
   6    95.10       95.15       95.19       95.22       95.25       95.28       95.30       95.34       95.41       95.54    
        95.71       95.88       96.06       96.22       96.38       96.53       96.67       96.79       96.87       96.92    
   7    95.10       95.15       95.19       95.22       95.24       95.24       95.24       95.23       95.26       95.44    
        95.65       95.87       96.07       96.26       96.44       96.61       96.77       96.92       97.04       97.11    
   8    95.11       95.16       95.20       95.23       95.24       95.22       95.17       95.07       94.98       95.29    
        95.60       95.86       96.09       96.30       96.50       96.70       96.89       97.09       97.25       97.36    
   9    95.11       95.18       95.23       95.26       95.27       95.24       95.15       94.92       94.44       95.14    
        95.58       95.88       96.13       96.35       96.56       96.78       97.02       97.27       97.52       97.70    
  10    95.12       95.23       95.29       95.32       95.33       95.31       95.26       95.17       95.08       95.39    
        95.70       95.96       96.20       96.41       96.62       96.84       97.11       97.47       97.86       98.21    
  11    95.28       95.33       95.37       95.40       95.42       95.42       95.42       95.41       95.46       95.63    
        95.85       96.07       96.28       96.47       96.65       96.85       97.12       97.60       98.21       98.96    
  12    95.41       95.44       95.46       95.49       95.52       95.55       95.57       95.62       95.69       95.83    
        96.01       96.19       96.37       96.53       96.67       96.78       96.88       97.59       98.31       99.03    
  13    95.52       95.53       95.56       95.59       95.62       95.66       95.71       95.78       95.87       96.00    
        96.15       96.31       96.47       96.62       96.71       96.62       95.34       97.44       98.34       99.03    
  14    95.61       95.62       95.65       95.68       95.72       95.77       95.83       95.91       96.01       96.14    
        96.28       96.44       96.59       96.75       96.88       96.99       97.09       97.78       98.44       99.04    
  15    95.69       95.70       95.72       95.76       95.80       95.86       95.93       96.02       96.13       96.25    
        96.40       96.55       96.72       96.89       97.08       97.29       97.57       98.03       98.55       99.05    
  16    95.75       95.77       95.79       95.83       95.88       95.94       96.02       96.11       96.22       96.35    
        96.50       96.66       96.84       97.03       97.24       97.49       97.80       98.19       98.63       99.06    
  17    95.81       95.82       95.85       95.88       95.94       96.00       96.08       96.18       96.30       96.43    
        96.58       96.75       96.93       97.14       97.37       97.64       97.95       98.30       98.69       99.06    
  18    95.85       95.86       95.89       95.93       95.98       96.05       96.13       96.23       96.35       96.49    
        96.64       96.81       97.01       97.22       97.46       97.73       98.04       98.37       98.73       99.07    
  19    95.88       95.89       95.92       95.96       96.01       96.08       96.17       96.27       96.39       96.53    
        96.68       96.86       97.06       97.28       97.52       97.79       98.09       98.41       98.75       99.07    
  20    95.89       95.90       95.93       95.97       96.03       96.10       96.18       96.29       96.41       96.55    
        96.70       96.88       97.08       97.30       97.55       97.82       98.11       98.43       98.76       99.07    

 HEAD WILL BE SAVED ON UNIT 1015 AT END OF TIME STEP    3, STRESS PERIOD    1


  VOLUME BUDGET FOR ENTIRE MODEL AT END OF TIME STEP    3, STRESS PERIOD   1
  ---------------------------------------------------------------------------------------------------

     CUMULATIVE VOLUME      L**3       RATES FOR THIS TIME STEP      L**3/T          PACKAGE NAME    
     ------------------                 ------------------------                     ----------------

           IN:                                      IN:
           ---                                      ---
              STO-SS =           0.0000                STO-SS =           0.0000     STORAGE         
              STO-SY =           0.0000                STO-SY =           0.0000     STORAGE         
                 WEL =           0.0000                   WEL =           0.0000     WEL_0           
                 CHD =       1.5059E-02                   CHD =       5.0196E-02     CHD_0           

            TOTAL IN =       1.5059E-02              TOTAL IN =       5.0196E-02

          OUT:                                     OUT:
          ----                                     ----
              STO-SS =           0.0000                STO-SS =           0.0000     STORAGE         
              STO-SY =           0.0000                STO-SY =           0.0000     STORAGE         
                 WEL =       1.3500E-02                   WEL =       4.5000E-02     WEL_0           
                 CHD =       1.5560E-03                   CHD =       5.1857E-03     CHD_0           

           TOTAL OUT =       1.5056E-02             TOTAL OUT =       5.0186E-02

            IN - OUT =       3.0256E-06              IN - OUT =       1.0663E-05

 PERCENT DISCREPANCY =           0.02     PERCENT DISCREPANCY =           0.02




         TIME SUMMARY AT END OF TIME STEP    3 IN STRESS PERIOD    1
                    SECONDS     MINUTES      HOURS       DAYS        YEARS
                    -----------------------------------------------------------
   TIME STEP LENGTH 0.10000     1.66667E-03 2.77778E-05 1.15741E-06 3.16881E-09
 STRESS PERIOD TIME 0.30000     5.00000E-03 8.33333E-05 3.47222E-06 9.50643E-09
         TOTAL TIME 0.30000     5.00000E-03 8.33333E-05 3.47222E-06 9.50643E-09
 UBDSV1 SAVING           STO-SS ON UNIT   1014 AT TIME STEP      4, STRESS PERIOD      1
 UBDSV1 SAVING           STO-SY ON UNIT   1014 AT TIME STEP      4, STRESS PERIOD      1
 UBDSV1 SAVING     FLOW-JA-FACE ON UNIT   1014 AT TIME STEP      4, STRESS PERIOD      1
 UBDSV06 SAVING              WEL IN MODEL EX2              PACKAGE EX2             CONNECTED TO MODEL EX2              PACKAGE WEL_0            ON UNIT   1014 AT TIME STEP      4, STRESS PERIOD      1
1
  HEAD IN LAYER   1 AT END OF TIME STEP   4 IN STRESS PERIOD    1
  ---------------------------------------------------------------------------

            1           2           3           4           5           6           7           8           9          10
           11          12          13          14          15          16          17          18          19          20
 ........................................................................................................................
   1    95.10       95.15       95.21       95.26       95.32       95.38       95.45       95.53       95.62       95.71    
        95.81       95.92       96.03       96.14       96.24       96.33       96.41       96.48       96.52       96.54    
   2    95.10       95.15       95.20       95.26       95.31       95.37       95.44       95.52       95.61       95.70    
        95.81       95.92       96.03       96.15       96.25       96.35       96.43       96.50       96.54       96.57    
   3    95.10       95.15       95.20       95.25       95.30       95.36       95.42       95.50       95.59       95.69    
        95.80       95.92       96.04       96.16       96.27       96.37       96.46       96.53       96.58       96.61    
   4    95.10       95.15       95.20       95.24       95.29       95.34       95.40       95.47       95.55       95.66    
        95.78       95.91       96.04       96.17       96.30       96.41       96.51       96.59       96.65       96.68    
   5    95.10       95.15       95.19       95.23       95.27       95.31       95.36       95.41       95.50       95.61    
        95.75       95.90       96.05       96.20       96.34       96.47       96.58       96.68       96.75       96.78    
   6    95.10       95.15       95.19       95.22       95.25       95.28       95.30       95.34       95.41       95.54    
        95.71       95.88       96.06       96.22       96.38       96.53       96.67       96.79       96.87       96.92    
   7    95.10       95.15       95.19       95.22       95.24       95.24       95.24       95.23       95.26       95.44    
        95.65       95.87       96.07       96.26       96.44       96.61       96.77       96.92       97.04       97.11    
   8    95.10       95.16       95.20       95.23       95.24       95.22       95.17       95.07       94.97       95.29    
        95.60       95.86       96.09       96.30       96.50       96.70       96.89       97.09       97.25       97.36    
   9    95.10       95.18       95.23       95.26       95.27       95.24       95.15       94.91       94.21       95.13    
        95.58       95.88       96.13       96.35       96.56       96.78       97.02       97.28       97.53       97.71    
  10    95.10       95.23       95.29       95.32       95.33       95.31       95.26       95.17       95.07       95.39    
        95.70       95.96       96.20       96.41       96.62       96.84       97.11       97.47       97.86       98.22    
  11    95.28       95.33       95.37       95.40       95.42       95.42       95.42       95.42       95.46       95.63    
        95.85       96.07       96.28       96.47       96.65       96.85       97.13       97.61       98.22       99.10    
  12    95.41       95.44       95.46       95.49       95.52       95.55       95.57       95.62       95.69       95.83    
        96.01       96.19       96.37       96.53       96.67       96.78       96.94       97.60       98.32       99.10    
  13    95.52       95.53       95.56       95.59       95.62       95.66       95.71       95.78       95.87       96.00    
        96.15       96.31       96.47       96.62       96.71       96.69       96.41       97.51       98.35       99.10    
  14    95.61       95.62       95.65       95.68       95.72       95.77       95.83       95.91       96.01       96.14    
        96.28       96.44       96.59       96.75       96.89       97.00       97.16       97.79       98.45       99.10    
  15    95.69       95.70       95.72       95.76       95.80       95.86       95.93       96.02       96.13       96.25    
        96.40       96.55       96.72       96.89       97.08       97.29       97.57       98.03       98.56       99.10    
  16    95.75       95.77       95.79       95.83       95.88       95.94       96.02       96.11       96.22       96.35    
        96.50       96.66       96.84       97.03       97.24       97.49       97.80       98.20       98.64       99.10    
  17    95.81       95.82       95.85       95.88       95.94       96.00       96.08       96.18       96.30       96.43    
        96.58       96.75       96.93       97.14       97.37       97.64       97.95       98.30       98.69       99.10    
  18    95.85       95.86       95.89       95.93       95.98       96.05       96.13       96.23       96.35       96.49    
        96.64       96.81       97.01       97.22       97.46       97.73       98.04       98.37       98.73       99.10    
  19    95.88       95.89       95.92       95.96       96.01       96.08       96.17       96.27       96.39       96.53    
        96.68       96.86       97.06       97.28       97.52       97.79       98.09       98.41       98.75       99.10    
  20    95.89       95.90       95.93       95.97       96.03       96.10       96.18       96.29       96.41       96.55    
        96.70       96.88       97.08       97.30       97.55       97.82       98.11       98.43       98.76       99.10    
1
  HEAD IN LAYER   2 AT END OF TIME STEP   4 IN STRESS PERIOD    1
  ---------------------------------------------------------------------------

            1           2           3           4           5           6           7           8           9          10
           11          12          13          14          15          16          17          18          19          20
 ........................................................................................................................
   1    95.10       95.15       95.21       95.26       95.32       95.38       95.45       95.53       95.62       95.71    
        95.81       95.92       96.03       96.14       96.24       96.33       96.41       96.48       96.52       96.54    
   2    95.10       95.15       95.20       95.26       95.31       95.37       95.44       95.52       95.61       95.70    
        95.81       95.92       96.03       96.15       96.25       96.35       96.43       96.50       96.54       96.57    
   3    95.10       95.15       95.20       95.25       95.30       95.36       95.42       95.50       95.59       95.69    
        95.80       95.92       96.04       96.16       96.27       96.37       96.46       96.53       96.58       96.61    
   4    95.10       95.15       95.20       95.24       95.29       95.34       95.40       95.47       95.55       95.66    
        95.78       95.91       96.04       96.17       96.30       96.41       96.51       96.59       96.65       96.68    
   5    95.10       95.15       95.19       95.23       95.27       95.31       95.36       95.41       95.50       95.61    
        95.75       95.90       96.05       96.20       96.34       96.47       96.58       96.68       96.75       96.78    
   6    95.10       95.15       95.19       95.22       95.25       95.28       95.30       95.34       95.41       95.54    
        95.71       95.88       96.06       96.22       96.38       96.53       96.67       96.79       96.87       96.92    
   7    95.10       95.15       95.19       95.22       95.24       95.24       95.24       95.23       95.26       95.44    
        95.65       95.87       96.07       96.26       96.44       96.61       96.77       96.92       97.04       97.11    
   8    95.11       95.16       95.20       95.23       95.24       95.22       95.17       95.07       94.98       95.29    
        95.60       95.86       96.09       96.30       96.50       96.70       96.89       97.09       97.25       97.36    
   9    95.11       95.18       95.23       95.26       95.27       95.24       95.15       94.92       94.44       95.14    
        95.58       95.88       96.13       96.35       96.56       96.78       97.02       97.27       97.52       97.70    
  10    95.12       95.23       95.29       95.32       95.33       95.31       95.26       95.17       95.08       95.39    
        95.70       95.96       96.20       96.41       96.62       96.84       97.11       97.47       97.86       98.21    
  11    95.28       95.33       95.37       95.40       95.42       95.42       95.42       95.41       95.46       95.63    
        95.85       96.07       96.28       96.47       96.65       96.85       97.12       97.60       98.21       98.96    
  12    95.41       95.44       95.46       95.49       95.52       95.54       95.57       95.62       95.69       95.83    
        96.01       96.19       96.37       96.53       96.67       96.78       96.88       97.59       98.31       99.03    
  13    95.52       95.53       95.56       95.59       95.62       95.66       95.71       95.78       95.87       96.00    
        96.15       96.31       96.47       96.62       96.71       96.62       95.34       97.44       98.34       99.03    
  14    95.61       95.62       95.65       95.68       95.72       95.77       95.83       95.91       96.01       96.14    
        96.28       96.44       96.59       96.75       96.88       96.99       97.09       97.78       98.44       99.04    
  15    95.69       95.70       95.72       95.76       95.80       95.86       95.93       96.02       96.13       96.25    
        96.40       96.55       96.72       96.89       97.08       97.29       97.57       98.03       98.55       99.05    
  16    95.75       95.77       95.79       95.83       95.88       95.94       96.02       96.11       96.22       96.35    
        96.50       96.66       96.84       97.03       97.24       97.49       97.80       98.19       98.63       99.06    
  17    95.81       95.82       95.85       95.88       95.94       96.00       96.08       96.18       96.30       96.43    
        96.58       96.75       96.93       97.14       97.37       97.64       97.95       98.30       98.69       99.06    
  18    95.85       95.86       95.89       95.93       95.98       96.05       96.13       96.23       96.35       96.49    
        96.64       96.81       97.01       97.22       97.46       97.73       98.04       98.37       98.73       99.07    
  19    95.88       95.89       95.92       95.96       96.01       96.08       96.17       96.27       96.39       96.53    
        96.68       96.86       97.06       97.28       97.52       97.79       98.09       98.41       98.75       99.07    
  20    95.89       95.90       95.93       95.97       96.03       96.10       96.18       96.29       96.41       96.55    
        96.70       96.88       97.08       97.30       97.55       97.82       98.11       98.43       98.76       99.07    

 HEAD WILL BE SAVED ON UNIT 1015 AT END OF TIME STEP    4, STRESS PERIOD    1


  VOLUME BUDGET FOR ENTIRE MODEL AT END OF TIME STEP    4, STRESS PERIOD   1
  ---------------------------------------------------------------------------------------------------

     CUMULATIVE VOLUME      L**3       RATES FOR THIS TIME STEP      L**3/T          PACKAGE NAME    
     ------------------                 ------------------------                     ----------------

           IN:                                      IN:
           ---                                      ---
              STO-SS =           0.0000                STO-SS =           0.0000     STORAGE         
              STO-SY =           0.0000                STO-SY =           0.0000     STORAGE         
                 WEL =           0.0000                   WEL =           0.0000     WEL_0           
                 CHD =       2.0079E-02                   CHD =       5.0196E-02     CHD_0           

            TOTAL IN =       2.0079E-02              TOTAL IN =       5.0196E-02

          OUT:                                     OUT:
          ----                                     ----
              STO-SS =           0.0000                STO-SS =           0.0000     STORAGE         
              STO-SY =           0.0000                STO-SY =           0.0000     STORAGE         
                 WEL =       1.8000E-02                   WEL =       4.5000E-02     WEL_0           
                 CHD =       2.0744E-03                   CHD =       5.1845E-03     CHD_0           

           TOTAL OUT =       2.0074E-02             TOTAL OUT =       5.0184E-02

            IN - OUT =       4.1418E-06              IN - OUT =       1.1163E-05

 PERCENT DISCREPANCY =           0.02     PERCENT DISCREPANCY =           0.02




         TIME SUMMARY AT END OF TIME STEP    4 IN STRESS PERIOD    1
                    SECONDS     MINUTES      HOURS       DAYS        YEARS
                    -----------------------------------------------------------
   TIME STEP LENGTH 0.10000     1.66667E-03 2.77778E-05 1.15741E-06 3.16881E-09
 STRESS PERIOD TIME 0.40000     6.66667E-03 1.11111E-04 4.62963E-06 1.26752E-08
         TOTAL TIME 0.40000     6.66667E-03 1.11111E-04 4.62963E-06 1.26752E-08
 UBDSV1 SAVING           STO-SS ON UNIT   1014 AT TIME STEP      5, STRESS PERIOD      1
 UBDSV1 SAVING           STO-SY ON UNIT   1014 AT TIME STEP      5, STRESS PERIOD      1
 UBDSV1 SAVING     FLOW-JA-FACE ON UNIT   1014 AT TIME STEP      5, STRESS PERIOD      1
 UBDSV06 SAVING              WEL IN MODEL EX2              PACKAGE EX2             CONNECTED TO MODEL EX2              PACKAGE WEL_0            ON UNIT   1014 AT TIME STEP      5, STRESS PERIOD      1
1
  HEAD IN LAYER   1 AT END OF TIME STEP   5 IN STRESS PERIOD    1
  ---------------------------------------------------------------------------

            1           2           3           4           5           6           7           8           9          10
           11          12          13          14          15          16          17          18          19          20
 ........................................................................................................................
   1    95.10       95.15       95.21       95.26       95.32       95.38       95.45       95.53       95.62       95.71    
        95.81       95.92       96.03       96.14       96.24       96.33       96.41       96.48       96.52       96.54    
   2    95.10       95.15       95.20       95.26       95.31       95.37       95.44       95.52       95.61       95.70    
        95.81       95.92       96.03       96.15       96.25       96.35       96.43       96.50       96.54       96.57    
   3    95.10       95.15       95.20       95.25       95.30       95.36       95.42       95.50       95.59       95.69    
        95.80       95.92       96.04       96.16       96.27       96.37       96.46       96.53       96.58       96.61    
   4    95.10       95.15       95.20       95.24       95.29       95.34       95.40       95.47       95.55       95.66    
        95.78       95.91       96.04       96.17       96.30       96.41       96.51       96.59       96.65       96.68    
   5    95.10       95.15       95.19       95.23       95.27       95.31       95.36       95.41       95.50       95.61    
        95.75       95.90       96.05       96.20       96.34       96.47       96.58       96.68       96.75       96.78    
   6    95.10       95.15       95.19       95.22       95.25       95.28       95.30       95.34       95.41       95.54    
        95.71       95.88       96.06       96.22       96.38       96.53       96.67       96.79       96.87       96.92    
   7    95.10       95.15       95.19       95.22       95.24       95.24       95.24       95.23       95.26       95.44    
        95.65       95.87       96.07       96.26       96.44       96.61       96.77       96.92       97.04       97.11    
   8    95.10       95.16       95.20       95.23       95.24       95.22       95.17       95.07       94.97       95.29    
        95.60       95.86       96.09       96.30       96.50       96.70       96.89       97.09       97.25       97.36    
   9    95.10       95.18       95.23       95.26       95.27       95.24       95.15       94.91       94.21       95.13    
        95.58       95.88       96.13       96.35       96.56       96.78       97.02       97.28       97.53       97.71    
  10    95.10       95.23       95.29       95.32       95.33       95.31       95.26       95.17       95.07       95.39    
        95.70       95.96       96.20       96.41       96.62       96.84       97.11       97.47       97.86       98.22    
  11    95.28       95.33       95.37       95.40       95.42       95.42       95.42       95.42       95.46       95.63    
        95.85       96.07       96.28       96.47       96.65       96.85       97.13       97.61       98.22       99.10    
  12    95.41       95.44       95.46       95.49       95.52       95.55       95.57       95.62       95.69       95.83    
        96.01       96.19       96.37       96.53       96.67       96.78       96.94       97.60       98.32       99.10    
  13    95.52       95.53       95.56       95.59       95.62       95.66       95.71       95.78       95.87       96.00    
        96.15       96.31       96.47       96.62       96.71       96.69       96.41       97.51       98.35       99.10    
  14    95.61       95.62       95.65       95.68       95.72       95.77       95.83       95.91       96.01       96.14    
        96.28       96.44       96.59       96.75       96.89       97.00       97.16       97.79       98.45       99.10    
  15    95.69       95.70       95.72       95.76       95.80       95.86       95.93       96.02       96.13       96.25    
        96.40       96.55       96.72       96.89       97.08       97.29       97.57       98.03       98.56       99.10    
  16    95.75       95.77       95.79       95.83       95.88       95.94       96.02       96.11       96.22       96.35    
        96.50       96.66       96.84       97.03       97.24       97.49       97.80       98.20       98.64       99.10    
  17    95.81       95.82       95.85       95.88       95.94       96.00       96.08       96.18       96.30       96.43    
        96.58       96.75       96.93       97.14       97.37       97.64       97.95       98.30       98.69       99.10    
  18    95.85       95.86       95.89       95.93       95.98       96.05       96.13       96.23       96.35       96.49    
        96.64       96.81       97.01       97.22       97.46       97.73       98.04       98.37       98.73       99.10    
  19    95.88       95.89       95.92       95.96       96.01       96.08       96.17       96.27       96.39       96.53    
        96.68       96.86       97.06       97.28       97.52       97.79       98.09       98.41       98.75       99.10    
  20    95.89       95.90       95.93       95.97       96.03       96.10       96.18       96.29       96.41       96.55    
        96.70       96.88       97.08       97.30       97.55       97.82       98.11       98.43       98.76       99.10    
1
  HEAD IN LAYER   2 AT END OF TIME STEP   5 IN STRESS PERIOD    1
  ---------------------------------------------------------------------------

            1           2           3           4           5           6           7           8           9          10
           11          12          13          14          15          16          17          18          19          20
 ........................................................................................................................
   1    95.10       95.15       95.21       95.26       95.32       95.38       95.45       95.53       95.62       95.71    
        95.81       95.92       96.03       96.14       96.24       96.33       96.41       96.48       96.52       96.54    
   2    95.10       95.15       95.20       95.26       95.31       95.37       95.44       95.52       95.61       95.70    
        95.81       95.92       96.03       96.15       96.25       96.35       96.43       96.50       96.54       96.57    
   3    95.10       95.15       95.20       95.25       95.30       95.36       95.42       95.50       95.59       95.69    
        95.80       95.92       96.04       96.16       96.27       96.37       96.46       96.53       96.58       96.61    
   4    95.10       95.15       95.20       95.24       95.29       95.34       95.40       95.47       95.55       95.66    
        95.78       95.91       96.04       96.17       96.30       96.41       96.51       96.59       96.65       96.68    
   5    95.10       95.15       95.19       95.23       95.27       95.31       95.36       95.41       95.50       95.61    
        95.75       95.90       96.05       96.20       96.34       96.47       96.58       96.68       96.75       96.78    
   6    95.10       95.15       95.19       95.22       95.25       95.28       95.30       95.34       95.41       95.54    
        95.71       95.88       96.06       96.22       96.38       96.53       96.67       96.79       96.87       96.92    
   7    95.10       95.15       95.19       95.22       95.24       95.24       95.24       95.23       95.26       95.44    
        95.65       95.87       96.07       96.26       96.44       96.61       96.77       96.92       97.04       97.11    
   8    95.11       95.16       95.20       95.23       95.24       95.22       95.17       95.07       94.98       95.29    
        95.60       95.86       96.09       96.30       96.50       96.70       96.89       97.09       97.25       97.36    
   9    95.11       95.18       95.23       95.26       95.27       95.24       95.15       94.92       94.44       95.14    
        95.58       95.88       96.13       96.35       96.56       96.78       97.02       97.27       97.52       97.70    
  10    95.12       95.23       95.29       95.32       95.33       95.31       95.26       95.17       95.08       95.39    
        95.70       95.96       96.20       96.41       96.62       96.84       97.11       97.47       97.86       98.21    
  11    95.28       95.33       95.37       95.40       95.42       95.42       95.42       95.41       95.46       95.63    
        95.85       96.07       96.28       96.47       96.65       96.85       97.12       97.60       98.21       98.96    
  12    95.41       95.44       95.46       95.49       95.52       95.54       95.57       95.62       95.69       95.83    
        96.01       96.19       96.37       96.53       96.67       96.78       96.88       97.59       98.31       99.03    
  13    95.52       95.53       95.56       95.59       95.62       95.66       95.71       95.78       95.87       96.00    
        96.15       96.31       96.47       96.62       96.71       96.62       95.34       97.44       98.34       99.03    
  14    95.61       95.62       95.65       95.68       95.72       95.77       95.83       95.91       96.01       96.14    
        96.28       96.44       96.59       96.75       96.88       96.99       97.09       97.78       98.44       99.04    
  15    95.69       95.70       95.72       95.76       95.80       95.86       95.93       96.02       96.13       96.25    
        96.40       96.55       96.72       96.89       97.08       97.29       97.57       98.03       98.55       99.05    
  16    95.75       95.77       95.79       95.83       95.88       95.94       96.02       96.11       96.22       96.35    
        96.50       96.66       96.84       97.03       97.24       97.49       97.80       98.19       98.63       99.06    
  17    95.81       95.82       95.85       95.88       95.94       96.00       96.08       96.18       96.30       96.43    
        96.58       96.75       96.93       97.14       97.37       97.64       97.95       98.30       98.69       99.06    
  18    95.85       95.86       95.89       95.93       95.98       96.05       96.13       96.23       96.35       96.49    
        96.64       96.81       97.01       97.22       97.46       97.73       98.04       98.37       98.73       99.07    
  19    95.88       95.89       95.92       95.96       96.01       96.08       96.17       96.27       96.39       96.53    
        96.68       96.86       97.06       97.28       97.52       97.79       98.09       98.41       98.75       99.07    
  20    95.89       95.90       95.93       95.97       96.03       96.10       96.18       96.29       96.41       96.55    
        96.70       96.88       97.08       97.30       97.55       97.82       98.11       98.43       98.76       99.07    

 HEAD WILL BE SAVED ON UNIT 1015 AT END OF TIME STEP    5, STRESS PERIOD    1


  VOLUME BUDGET FOR ENTIRE MODEL AT END OF TIME STEP    5, STRESS PERIOD   1
  ---------------------------------------------------------------------------------------------------

     CUMULATIVE VOLUME      L**3       RATES FOR THIS TIME STEP      L**3/T          PACKAGE NAME    
     ------------------                 ------------------------                     ----------------

           IN:                                      IN:
           ---                                      ---
              STO-SS =           0.0000                STO-SS =           0.0000     STORAGE         
              STO-SY =           0.0000                STO-SY =           0.0000     STORAGE         
                 WEL =           0.0000                   WEL =           0.0000     WEL_0           
                 CHD =       2.5098E-02                   CHD =       5.0195E-02     CHD_0           

            TOTAL IN =       2.5098E-02              TOTAL IN =       5.0195E-02

          OUT:                                     OUT:
          ----                                     ----
              STO-SS =           0.0000                STO-SS =           0.0000     STORAGE         
              STO-SY =           0.0000                STO-SY =           0.0000     STORAGE         
                 WEL =       2.2500E-02                   WEL =       4.5000E-02     WEL_0           
                 CHD =       2.5928E-03                   CHD =       5.1838E-03     CHD_0           

           TOTAL OUT =       2.5093E-02             TOTAL OUT =       5.0184E-02

            IN - OUT =       5.2969E-06              IN - OUT =       1.1550E-05

 PERCENT DISCREPANCY =           0.02     PERCENT DISCREPANCY =           0.02




         TIME SUMMARY AT END OF TIME STEP    5 IN STRESS PERIOD    1
                    SECONDS     MINUTES      HOURS       DAYS        YEARS
                    -----------------------------------------------------------
   TIME STEP LENGTH 0.10000     1.66667E-03 2.77778E-05 1.15741E-06 3.16881E-09
 STRESS PERIOD TIME 0.50000     8.33333E-03 1.38889E-04 5.78704E-06 1.58440E-08
         TOTAL TIME 0.50000     8.33333E-03 1.38889E-04 5.78704E-06 1.58440E-08
 UBDSV1 SAVING           STO-SS ON UNIT   1014 AT TIME STEP      6, STRESS PERIOD      1
 UBDSV1 SAVING           STO-SY ON UNIT   1014 AT TIME STEP      6, STRESS PERIOD      1
 UBDSV1 SAVING     FLOW-JA-FACE ON UNIT   1014 AT TIME STEP      6, STRESS PERIOD      1
 UBDSV06 SAVING              WEL IN MODEL EX2              PACKAGE EX2             CONNECTED TO MODEL EX2              PACKAGE WEL_0            ON UNIT   1014 AT TIME STEP      6, STRESS PERIOD      1
1
  HEAD IN LAYER   1 AT END OF TIME STEP   6 IN STRESS PERIOD    1
  ---------------------------------------------------------------------------

            1           2           3           4           5           6           7           8           9          10
           11          12          13          14          15          16          17          18          19          20
 ........................................................................................................................
   1    95.10       95.15       95.21       95.26       95.32       95.38       95.45       95.53       95.62       95.71    
        95.81       95.92       96.03       96.14       96.24       96.33       96.41       96.48       96.52       96.54    
   2    95.10       95.15       95.20       95.26       95.31       95.37       95.44       95.52       95.61       95.70    
        95.81       95.92       96.03       96.15       96.25       96.35       96.43       96.50       96.54       96.57    
   3    95.10       95.15       95.20       95.25       95.30       95.36       95.42       95.50       95.59       95.69    
        95.80       95.92       96.04       96.16       96.27       96.37       96.46       96.53       96.59       96.61    
   4    95.10       95.15       95.20       95.24       95.29       95.34       95.40       95.47       95.55       95.66    
        95.78       95.91       96.04       96.17       96.30       96.41       96.51       96.59       96.65       96.68    
   5    95.10       95.15       95.19       95.23       95.27       95.31       95.36       95.41       95.50       95.61    
        95.75       95.90       96.05       96.20       96.34       96.47       96.58       96.68       96.75       96.78    
   6    95.10       95.15       95.19       95.22       95.25       95.28       95.30       95.34       95.41       95.54    
        95.71       95.88       96.06       96.22       96.38       96.53       96.67       96.79       96.87       96.92    
   7    95.10       95.15       95.19       95.22       95.24       95.24       95.24       95.23       95.26       95.44    
        95.65       95.87       96.07       96.26       96.44       96.61       96.77       96.92       97.04       97.11    
   8    95.10       95.16       95.20       95.23       95.24       95.22       95.17       95.07       94.97       95.29    
        95.60       95.86       96.09       96.30       96.50       96.70       96.89       97.09       97.25       97.36    
   9    95.10       95.18       95.23       95.26       95.27       95.24       95.15       94.91       94.21       95.13    
        95.58       95.88       96.13       96.35       96.56       96.78       97.02       97.28       97.53       97.71    
  10    95.10       95.23       95.29       95.32       95.33       95.31       95.26       95.17       95.07       95.39    
        95.70       95.96       96.20       96.41       96.62       96.84       97.11       97.47       97.86       98.22    
  11    95.28       95.33       95.37       95.40       95.42       95.42       95.42       95.42       95.46       95.63    
        95.85       96.07       96.28       96.47       96.65       96.85       97.13       97.61       98.22       99.10    
  12    95.41       95.44       95.46       95.49       95.52       95.54       95.57       95.62       95.69       95.83    
        96.01       96.19       96.37       96.53       96.67       96.78       96.94       97.60       98.32       99.10    
  13    95.52       95.53       95.56       95.59       95.62       95.66       95.71       95.78       95.87       96.00    
        96.15       96.31       96.47       96.62       96.71       96.69       96.41       97.51       98.35       99.10    
  14    95.61       95.62       95.65       95.68       95.72       95.77       95.83       95.91       96.01       96.14    
        96.28       96.44       96.59       96.75       96.89       97.00       97.16       97.79       98.45       99.10    
  15    95.69       95.70       95.72       95.76       95.80       95.86       95.93       96.02       96.13       96.25    
        96.40       96.55       96.72       96.89       97.08       97.29       97.57       98.03       98.56       99.10    
  16    95.75       95.77       95.79       95.83       95.88       95.94       96.02       96.11       96.22       96.35    
        96.50       96.66       96.84       97.03       97.24       97.49       97.80       98.20       98.64       99.10    
  17    95.81       95.82       95.85       95.88       95.94       96.00       96.08       96.18       96.30       96.43    
        96.58       96.75       96.93       97.14       97.37       97.64       97.95       98.30       98.69       99.10    
  18    95.85       95.86       95.89       95.93       95.98       96.05       96.13       96.23       96.35       96.49    
        96.64       96.81       97.01       97.22       97.46       97.73       98.04       98.37       98.73       99.10    
  19    95.88       95.89       95.92       95.96       96.01       96.08       96.17       96.27       96.39       96.53    
        96.68       96.86       97.06       97.28       97.52       97.79       98.09       98.41       98.75       99.10    
  20    95.89       95.90       95.93       95.97       96.03       96.10       96.18       96.29       96.41       96.55    
        96.70       96.88       97.08       97.30       97.55       97.82       98.11       98.43       98.76       99.10    
1
  HEAD IN LAYER   2 AT END OF TIME STEP   6 IN STRESS PERIOD    1
  ---------------------------------------------------------------------------

            1           2           3           4           5           6           7           8           9          10
           11          12          13          14          15          16          17          18          19          20
 ........................................................................................................................
   1    95.10       95.15       95.21       95.26       95.32       95.38       95.45       95.53       95.62       95.71    
        95.81       95.92       96.03       96.14       96.24       96.33       96.41       96.48       96.52       96.54    
   2    95.10       95.15       95.20       95.26       95.31       95.37       95.44       95.52       95.61       95.70    
        95.81       95.92       96.03       96.15       96.25       96.35       96.43       96.50       96.54       96.57    
   3    95.10       95.15       95.20       95.25       95.30       95.36       95.42       95.50       95.59       95.69    
        95.80       95.92       96.04       96.16       96.27       96.37       96.46       96.53       96.58       96.61    
   4    95.10       95.15       95.20       95.24       95.29       95.34       95.40       95.47       95.55       95.66    
        95.78       95.91       96.04       96.17       96.30       96.41       96.51       96.59       96.65       96.68    
   5    95.10       95.15       95.19       95.23       95.27       95.31       95.36       95.41       95.50       95.61    
        95.75       95.90       96.05       96.20       96.34       96.47       96.58       96.68       96.75       96.78    
   6    95.10       95.15       95.19       95.22       95.25       95.28       95.30       95.34       95.41       95.54    
        95.71       95.88       96.06       96.22       96.38       96.53       96.67       96.79       96.87       96.92    
   7    95.10       95.15       95.19       95.22       95.24       95.24       95.24       95.23       95.26       95.44    
        95.65       95.87       96.07       96.26       96.44       96.61       96.77       96.92       97.04       97.11    
   8    95.11       95.16       95.20       95.23       95.24       95.22       95.17       95.07       94.98       95.29    
        95.60       95.86       96.09       96.30       96.50       96.70       96.89       97.09       97.25       97.36    
   9    95.11       95.18       95.23       95.26       95.27       95.24       95.15       94.92       94.44       95.14    
        95.58       95.88       96.13       96.35       96.56       96.78       97.02       97.27       97.52       97.70    
  10    95.12       95.23       95.29       95.32       95.33       95.31       95.26       95.17       95.08       95.39    
        95.70       95.96       96.20       96.41       96.62       96.84       97.11       97.47       97.86       98.21    
  11    95.28       95.33       95.37       95.40       95.42       95.42       95.42       95.41       95.46       95.63    
        95.85       96.07       96.28       96.47       96.65       96.85       97.12       97.60       98.21       98.96    
  12    95.41       95.43       95.46       95.49       95.52       95.54       95.57       95.62       95.69       95.83    
        96.01       96.19       96.37       96.53       96.67       96.78       96.88       97.59       98.31       99.03    
  13    95.52       95.53       95.56       95.59       95.62       95.66       95.71       95.78       95.87       96.00    
        96.15       96.31       96.47       96.62       96.71       96.62       95.34       97.44       98.34       99.03    
  14    95.61       95.62       95.65       95.68       95.72       95.77       95.83       95.91       96.01       96.14    
        96.28       96.44       96.59       96.75       96.88       96.99       97.09       97.78       98.44       99.04    
  15    95.69       95.70       95.72       95.76       95.80       95.86       95.93       96.02       96.13       96.25    
        96.40       96.55       96.72       96.89       97.08       97.29       97.57       98.03       98.55       99.05    
  16    95.75       95.77       95.79       95.83       95.88       95.94       96.02       96.11       96.22       96.35    
        96.50       96.66       96.84       97.03       97.24       97.49       97.80       98.19       98.63       99.06    
  17    95.81       95.82       95.85       95.88       95.94       96.00       96.08       96.18       96.30       96.43    
        96.58       96.75       96.93       97.14       97.37       97.64       97.95       98.30       98.69       99.06    
  18    95.85       95.86       95.89       95.93       95.98       96.05       96.13       96.23       96.35       96.49    
        96.64       96.81       97.01       97.22       97.46       97.73       98.04       98.37       98.73       99.07    
  19    95.88       95.89       95.92       95.96       96.01       96.08       96.17       96.27       96.39       96.53    
        96.68       96.86       97.06       97.28       97.52       97.79       98.09       98.41       98.75       99.07    
  20    95.89       95.90       95.93       95.97       96.03       96.10       96.18       96.29       96.41       96.55    
        96.70       96.88       97.08       97.30       97.55       97.82       98.11       98.43       98.76       99.07    

 HEAD WILL BE SAVED ON UNIT 1015 AT END OF TIME STEP    6, STRESS PERIOD    1


  VOLUME BUDGET FOR ENTIRE MODEL AT END OF TIME STEP    6, STRESS PERIOD   1
  ---------------------------------------------------------------------------------------------------

     CUMULATIVE VOLUME      L**3       RATES FOR THIS TIME STEP      L**3/T          PACKAGE NAME    
     ------------------                 ------------------------                     ----------------

           IN:                                      IN:
           ---                                      ---
              STO-SS =           0.0000                STO-SS =           0.0000     STORAGE         
              STO-SY =           0.0000                STO-SY =           0.0000     STORAGE         
                 WEL =           0.0000                   WEL =           0.0000     WEL_0           
                 CHD =       3.0118E-02                   CHD =       5.0195E-02     CHD_0           

            TOTAL IN =       3.0118E-02              TOTAL IN =       5.0195E-02

          OUT:                                     OUT:
          ----                                     ----
              STO-SS =           0.0000                STO-SS =           0.0000     STORAGE         
              STO-SY =           0.0000                STO-SY =           0.0000     STORAGE         
                 WEL =       2.7000E-02                   WEL =       4.5000E-02     WEL_0           
                 CHD =       3.1111E-03                   CHD =       5.1829E-03     CHD_0           

           TOTAL OUT =       3.0111E-02             TOTAL OUT =       5.0183E-02

            IN - OUT =       6.4797E-06              IN - OUT =       1.1829E-05

 PERCENT DISCREPANCY =           0.02     PERCENT DISCREPANCY =           0.02




         TIME SUMMARY AT END OF TIME STEP    6 IN STRESS PERIOD    1
                    SECONDS     MINUTES      HOURS       DAYS        YEARS
                    -----------------------------------------------------------
   TIME STEP LENGTH 0.10000     1.66667E-03 2.77778E-05 1.15741E-06 3.16881E-09
 STRESS PERIOD TIME 0.60000     1.00000E-02 1.66667E-04 6.94444E-06 1.90129E-08
         TOTAL TIME 0.60000     1.00000E-02 1.66667E-04 6.94444E-06 1.90129E-08
 UBDSV1 SAVING           STO-SS ON UNIT   1014 AT TIME STEP      7, STRESS PERIOD      1
 UBDSV1 SAVING           STO-SY ON UNIT   1014 AT TIME STEP      7, STRESS PERIOD      1
 UBDSV1 SAVING     FLOW-JA-FACE ON UNIT   1014 AT TIME STEP      7, STRESS PERIOD      1
 UBDSV06 SAVING              WEL IN MODEL EX2              PACKAGE EX2             CONNECTED TO MODEL EX2              PACKAGE WEL_0            ON UNIT   1014 AT TIME STEP      7, STRESS PERIOD      1
1
  HEAD IN LAYER   1 AT END OF TIME STEP   7 IN STRESS PERIOD    1
  ---------------------------------------------------------------------------

            1           2           3           4           5           6           7           8           9          10
           11          12          13          14          15          16          17          18          19          20
 ........................................................................................................................
   1    95.10       95.15       95.21       95.26       95.32       95.38       95.45       95.53       95.62       95.71    
        95.81       95.92       96.03       96.14       96.24       96.34       96.41       96.48       96.52       96.54    
   2    95.10       95.15       95.20       95.26       95.31       95.37       95.44       95.52       95.61       95.70    
        95.81       95.92       96.03       96.15       96.25       96.35       96.43       96.50       96.54       96.57    
   3    95.10       95.15       95.20       95.25       95.30       95.36       95.42       95.50       95.59       95.69    
        95.80       95.92       96.04       96.16       96.27       96.37       96.46       96.53       96.59       96.61    
   4    95.10       95.15       95.20       95.24       95.29       95.34       95.40       95.47       95.55       95.66    
        95.78       95.91       96.04       96.17       96.30       96.41       96.51       96.59       96.65       96.68    
   5    95.10       95.15       95.19       95.23       95.27       95.31       95.36       95.41       95.50       95.61    
        95.75       95.90       96.05       96.20       96.34       96.47       96.58       96.68       96.75       96.78    
   6    95.10       95.15       95.19       95.22       95.25       95.28       95.30       95.34       95.41       95.54    
        95.71       95.88       96.06       96.22       96.38       96.53       96.67       96.79       96.87       96.92    
   7    95.10       95.15       95.19       95.22       95.24       95.24       95.24       95.23       95.26       95.44    
        95.65       95.87       96.07       96.26       96.44       96.61       96.77       96.92       97.04       97.11    
   8    95.10       95.16       95.20       95.23       95.24       95.22       95.17       95.07       94.97       95.29    
        95.60       95.86       96.09       96.30       96.50       96.70       96.89       97.09       97.25       97.36    
   9    95.10       95.18       95.23       95.26       95.27       95.24       95.15       94.91       94.21       95.13    
        95.58       95.88       96.13       96.35       96.56       96.78       97.02       97.28       97.53       97.71    
  10    95.10       95.23       95.29       95.32       95.33       95.31       95.26       95.17       95.07       95.39    
        95.70       95.96       96.20       96.41       96.62       96.84       97.11       97.47       97.86       98.22    
  11    95.28       95.33       95.37       95.40       95.42       95.42       95.42       95.41       95.46       95.63    
        95.85       96.07       96.28       96.47       96.65       96.85       97.13       97.61       98.22       99.10    
  12    95.41       95.44       95.46       95.49       95.52       95.54       95.57       95.62       95.69       95.83    
        96.01       96.19       96.37       96.53       96.67       96.78       96.94       97.60       98.32       99.10    
  13    95.52       95.53       95.56       95.59       95.62       95.66       95.71       95.78       95.87       96.00    
        96.15       96.31       96.47       96.62       96.71       96.69       96.41       97.51       98.35       99.10    
  14    95.61       95.62       95.65       95.68       95.72       95.77       95.83       95.91       96.01       96.14    
        96.28       96.44       96.59       96.75       96.89       97.00       97.16       97.79       98.45       99.10    
  15    95.69       95.70       95.72       95.76       95.80       95.86       95.93       96.02       96.13       96.25    
        96.40       96.55       96.72       96.89       97.08       97.29       97.57       98.03       98.56       99.10    
  16    95.75       95.77       95.79       95.83       95.88       95.94       96.02       96.11       96.22       96.35    
        96.50       96.66       96.84       97.03       97.24       97.49       97.80       98.20       98.64       99.10    
  17    95.81       95.82       95.85       95.88       95.94       96.00       96.08       96.18       96.30       96.43    
        96.58       96.75       96.93       97.14       97.37       97.64       97.95       98.30       98.69       99.10    
  18    95.85       95.86       95.89       95.93       95.98       96.05       96.13       96.23       96.35       96.49    
        96.64       96.81       97.01       97.22       97.46       97.73       98.04       98.37       98.73       99.10    
  19    95.88       95.89       95.92       95.96       96.01       96.08       96.17       96.27       96.39       96.53    
        96.68       96.86       97.06       97.28       97.52       97.79       98.09       98.41       98.75       99.10    
  20    95.89       95.90       95.93       95.97       96.03       96.10       96.18       96.29       96.41       96.55    
        96.70       96.88       97.08       97.30       97.55       97.82       98.11       98.43       98.76       99.10    
1
  HEAD IN LAYER   2 AT END OF TIME STEP   7 IN STRESS PERIOD    1
  ---------------------------------------------------------------------------

            1           2           3           4           5           6           7           8           9          10
           11          12          13          14          15          16          17          18          19          20
 ........................................................................................................................
   1    95.10       95.15       95.21       95.26       95.32       95.38       95.45       95.53       95.62       95.71    
        95.81       95.92       96.03       96.14       96.24       96.34       96.41       96.48       96.52       96.54    
   2    95.10       95.15       95.20       95.26       95.31       95.37       95.44       95.52       95.61       95.70    
        95.81       95.92       96.03       96.15       96.25       96.35       96.43       96.50       96.54       96.57    
   3    95.10       95.15       95.20       95.25       95.30       95.36       95.42       95.50       95.59       95.69    
        95.80       95.92       96.04       96.16       96.27       96.37       96.46       96.53       96.59       96.61    
   4    95.10       95.15       95.20       95.24       95.29       95.34       95.40       95.47       95.55       95.66    
        95.78       95.91       96.04       96.17       96.30       96.41       96.51       96.59       96.65       96.68    
   5    95.10       95.15       95.19       95.23       95.27       95.31       95.36       95.41       95.50       95.61    
        95.75       95.90       96.05       96.20       96.34       96.47       96.58       96.68       96.75       96.78    
   6    95.10       95.15       95.19       95.22       95.25       95.28       95.30       95.34       95.41       95.54    
        95.71       95.88       96.06       96.22       96.38       96.53       96.67       96.79       96.87       96.92    
   7    95.10       95.15       95.19       95.22       95.24       95.24       95.24       95.23       95.26       95.44    
        95.65       95.87       96.07       96.26       96.44       96.61       96.77       96.92       97.04       97.11    
   8    95.11       95.16       95.20       95.23       95.24       95.22       95.17       95.07       94.98       95.29    
        95.60       95.86       96.09       96.30       96.50       96.70       96.89       97.09       97.25       97.36    
   9    95.11       95.18       95.23       95.26       95.27       95.24       95.15       94.92       94.44       95.14    
        95.58       95.88       96.13       96.35       96.56       96.78       97.02       97.27       97.53       97.70    
  10    95.12       95.23       95.29       95.32       95.33       95.31       95.26       95.17       95.08       95.39    
        95.70       95.96       96.20       96.41       96.62       96.84       97.11       97.47       97.86       98.21    
  11    95.28       95.33       95.37       95.40       95.42       95.42       95.42       95.41       95.46       95.63    
        95.85       96.07       96.28       96.47       96.65       96.85       97.12       97.60       98.21       98.96    
  12    95.41       95.43       95.46       95.49       95.52       95.54       95.57       95.62       95.69       95.83    
        96.01       96.19       96.37       96.53       96.67       96.78       96.88       97.59       98.31       99.03    
  13    95.52       95.53       95.56       95.59       95.62       95.66       95.71       95.78       95.87       96.00    
        96.15       96.31       96.47       96.62       96.71       96.62       95.34       97.44       98.34       99.03    
  14    95.61       95.62       95.65       95.68       95.72       95.77       95.83       95.91       96.01       96.14    
        96.28       96.44       96.59       96.75       96.88       96.99       97.09       97.78       98.44       99.04    
  15    95.69       95.70       95.72       95.76       95.80       95.86       95.93       96.02       96.13       96.25    
        96.40       96.55       96.72       96.89       97.08       97.29       97.57       98.03       98.55       99.05    
  16    95.75       95.77       95.79       95.83       95.88       95.94       96.02       96.11       96.22       96.35    
        96.50       96.66       96.84       97.03       97.24       97.49       97.80       98.19       98.63       99.06    
  17    95.81       95.82       95.85       95.88       95.94       96.00       96.08       96.18       96.30       96.43    
        96.58       96.75       96.93       97.14       97.37       97.64       97.95       98.30       98.69       99.06    
  18    95.85       95.86       95.89       95.93       95.98       96.05       96.13       96.23       96.35       96.49    
        96.64       96.81       97.01       97.22       97.46       97.73       98.04       98.37       98.73       99.07    
  19    95.88       95.89       95.92       95.96       96.01       96.08       96.17       96.27       96.39       96.53    
        96.68       96.86       97.06       97.28       97.52       97.79       98.09       98.41       98.75       99.07    
  20    95.89       95.90       95.93       95.97       96.03       96.10       96.18       96.29       96.41       96.55    
        96.70       96.88       97.08       97.30       97.55       97.82       98.11       98.43       98.76       99.07    

 HEAD WILL BE SAVED ON UNIT 1015 AT END OF TIME STEP    7, STRESS PERIOD    1


  VOLUME BUDGET FOR ENTIRE MODEL AT END OF TIME STEP    7, STRESS PERIOD   1
  ---------------------------------------------------------------------------------------------------

     CUMULATIVE VOLUME      L**3       RATES FOR THIS TIME STEP      L**3/T          PACKAGE NAME    
     ------------------                 ------------------------                     ----------------

           IN:                                      IN:
           ---                                      ---
              STO-SS =           0.0000                STO-SS =           0.0000     STORAGE         
              STO-SY =           0.0000                STO-SY =           0.0000     STORAGE         
                 WEL =           0.0000                   WEL =           0.0000     WEL_0           
                 CHD =       3.5137E-02                   CHD =       5.0194E-02     CHD_0           

            TOTAL IN =       3.5137E-02              TOTAL IN =       5.0194E-02

          OUT:                                     OUT:
          ----                                     ----
              STO-SS =           0.0000                STO-SS =           0.0000     STORAGE         
              STO-SY =           0.0000                STO-SY =           0.0000     STORAGE         
                 WEL =       3.1500E-02                   WEL =       4.5000E-02     WEL_0           
                 CHD =       3.6293E-03                   CHD =       5.1823E-03     CHD_0           

           TOTAL OUT =       3.5129E-02             TOTAL OUT =       5.0182E-02

            IN - OUT =       7.6900E-06              IN - OUT =       1.2102E-05

 PERCENT DISCREPANCY =           0.02     PERCENT DISCREPANCY =           0.02




         TIME SUMMARY AT END OF TIME STEP    7 IN STRESS PERIOD    1
                    SECONDS     MINUTES      HOURS       DAYS        YEARS
                    -----------------------------------------------------------
   TIME STEP LENGTH 0.10000     1.66667E-03 2.77778E-05 1.15741E-06 3.16881E-09
 STRESS PERIOD TIME 0.70000     1.16667E-02 1.94444E-04 8.10185E-06 2.21817E-08
         TOTAL TIME 0.70000     1.16667E-02 1.94444E-04 8.10185E-06 2.21817E-08
 UBDSV1 SAVING           STO-SS ON UNIT   1014 AT TIME STEP      8, STRESS PERIOD      1
 UBDSV1 SAVING           STO-SY ON UNIT   1014 AT TIME STEP      8, STRESS PERIOD      1
 UBDSV1 SAVING     FLOW-JA-FACE ON UNIT   1014 AT TIME STEP      8, STRESS PERIOD      1
 UBDSV06 SAVING              WEL IN MODEL EX2              PACKAGE EX2             CONNECTED TO MODEL EX2              PACKAGE WEL_0            ON UNIT   1014 AT TIME STEP      8, STRESS PERIOD      1
1
  HEAD IN LAYER   1 AT END OF TIME STEP   8 IN STRESS PERIOD    1
  ---------------------------------------------------------------------------

            1           2           3           4           5           6           7           8           9          10
           11          12          13          14          15          16          17          18          19          20
 ........................................................................................................................
   1    95.10       95.15       95.21       95.26       95.32       95.38       95.45       95.53       95.62       95.71    
        95.81       95.92       96.03       96.14       96.24       96.34       96.41       96.48       96.52       96.54    
   2    95.10       95.15       95.20       95.26       95.31       95.37       95.44       95.52       95.61       95.70    
        95.81       95.92       96.03       96.15       96.25       96.35       96.43       96.50       96.54       96.57    
   3    95.10       95.15       95.20       95.25       95.30       95.36       95.42       95.50       95.59       95.69    
        95.80       95.92       96.04       96.16       96.27       96.37       96.46       96.53       96.59       96.61    
   4    95.10       95.15       95.20       95.24       95.29       95.34       95.40       95.47       95.55       95.66    
        95.78       95.91       96.04       96.17       96.30       96.41       96.51       96.59       96.65       96.68    
   5    95.10       95.15       95.19       95.23       95.27       95.31       95.36       95.41       95.50       95.61    
        95.75       95.90       96.05       96.20       96.34       96.47       96.58       96.68       96.75       96.78    
   6    95.10       95.15       95.19       95.22       95.25       95.28       95.30       95.34       95.41       95.54    
        95.71       95.88       96.06       96.22       96.38       96.53       96.67       96.79       96.87       96.92    
   7    95.10       95.15       95.19       95.22       95.24       95.24       95.24       95.23       95.26       95.44    
        95.65       95.87       96.07       96.26       96.44       96.61       96.77       96.92       97.04       97.11    
   8    95.10       95.16       95.20       95.23       95.24       95.22       95.17       95.07       94.97       95.29    
        95.60       95.86       96.09       96.30       96.50       96.70       96.89       97.09       97.25       97.36    
   9    95.10       95.18       95.23       95.26       95.27       95.24       95.15       94.91       94.21       95.13    
        95.58       95.88       96.13       96.35       96.56       96.78       97.02       97.28       97.53       97.71    
  10    95.10       95.23       95.29       95.32       95.33       95.31       95.26       95.17       95.07       95.39    
        95.70       95.96       96.20       96.41       96.62       96.84       97.11       97.47       97.86       98.22    
  11    95.28       95.33       95.37       95.40       95.42       95.42       95.42       95.41       95.46       95.63    
        95.85       96.07       96.28       96.47       96.65       96.85       97.13       97.61       98.22       99.10    
  12    95.41       95.43       95.46       95.49       95.52       95.54       95.57       95.62       95.69       95.83    
        96.01       96.19       96.37       96.53       96.67       96.78       96.94       97.60       98.32       99.10    
  13    95.52       95.53       95.56       95.59       95.62       95.66       95.71       95.78       95.87       96.00    
        96.15       96.31       96.47       96.62       96.71       96.69       96.41       97.51       98.35       99.10    
  14    95.61       95.62       95.65       95.68       95.72       95.77       95.83       95.91       96.01       96.14    
        96.28       96.44       96.59       96.75       96.89       97.00       97.16       97.79       98.45       99.10    
  15    95.69       95.70       95.72       95.76       95.80       95.86       95.93       96.02       96.13       96.25    
        96.40       96.55       96.72       96.89       97.08       97.29       97.57       98.03       98.56       99.10    
  16    95.75       95.77       95.79       95.83       95.88       95.94       96.02       96.11       96.22       96.35    
        96.50       96.66       96.84       97.03       97.24       97.49       97.80       98.20       98.64       99.10    
  17    95.81       95.82       95.85       95.88       95.94       96.00       96.08       96.18       96.30       96.43    
        96.58       96.75       96.93       97.14       97.37       97.64       97.95       98.30       98.69       99.10    
  18    95.85       95.86       95.89       95.93       95.98       96.05       96.13       96.23       96.35       96.49    
        96.64       96.81       97.01       97.22       97.46       97.73       98.04       98.37       98.73       99.10    
  19    95.88       95.89       95.92       95.96       96.01       96.08       96.17       96.27       96.39       96.53    
        96.68       96.86       97.06       97.28       97.52       97.79       98.09       98.41       98.75       99.10    
  20    95.89       95.90       95.93       95.97       96.03       96.10       96.18       96.29       96.41       96.55    
        96.70       96.88       97.08       97.30       97.55       97.82       98.11       98.43       98.76       99.10    
1
  HEAD IN LAYER   2 AT END OF TIME STEP   8 IN STRESS PERIOD    1
  ---------------------------------------------------------------------------

            1           2           3           4           5           6           7           8           9          10
           11          12          13          14          15          16          17          18          19          20
 ........................................................................................................................
   1    95.10       95.15       95.21       95.26       95.32       95.38       95.45       95.53       95.62       95.71    
        95.81       95.92       96.03       96.14       96.24       96.34       96.41       96.48       96.52       96.54    
   2    95.10       95.15       95.20       95.26       95.31       95.37       95.44       95.52       95.61       95.70    
        95.81       95.92       96.03       96.15       96.25       96.35       96.43       96.50       96.54       96.57    
   3    95.10       95.15       95.20       95.25       95.30       95.36       95.42       95.50       95.59       95.69    
        95.80       95.92       96.04       96.16       96.27       96.37       96.46       96.53       96.59       96.61    
   4    95.10       95.15       95.20       95.24       95.29       95.34       95.40       95.47       95.55       95.66    
        95.78       95.91       96.04       96.17       96.30       96.41       96.51       96.59       96.65       96.68    
   5    95.10       95.15       95.19       95.23       95.27       95.31       95.36       95.41       95.50       95.61    
        95.75       95.90       96.05       96.20       96.34       96.47       96.58       96.68       96.75       96.78    
   6    95.10       95.15       95.19       95.22       95.25       95.28       95.30       95.34       95.41       95.54    
        95.71       95.88       96.06       96.22       96.38       96.53       96.67       96.79       96.87       96.92    
   7    95.10       95.15       95.19       95.22       95.24       95.24       95.24       95.23       95.26       95.44    
        95.65       95.87       96.07       96.26       96.44       96.61       96.77       96.92       97.04       97.11    
   8    95.11       95.16       95.20       95.23       95.24       95.22       95.17       95.07       94.98       95.29    
        95.60       95.86       96.09       96.30       96.50       96.70       96.89       97.09       97.25       97.36    
   9    95.11       95.18       95.23       95.26       95.27       95.24       95.15       94.92       94.44       95.14    
        95.58       95.88       96.13       96.35       96.56       96.78       97.02       97.27       97.53       97.70    
  10    95.12       95.23       95.29       95.32       95.33       95.31       95.26       95.17       95.08       95.39    
        95.70       95.96       96.20       96.41       96.62       96.84       97.11       97.47       97.86       98.21    
  11    95.28       95.33       95.37       95.40       95.42       95.42       95.42       95.41       95.46       95.63    
        95.85       96.07       96.28       96.47       96.65       96.85       97.12       97.60       98.21       98.96    
  12    95.41       95.43       95.46       95.49       95.52       95.54       95.57       95.62       95.69       95.83    
        96.01       96.19       96.37       96.53       96.67       96.78       96.88       97.59       98.31       99.03    
  13    95.52       95.53       95.56       95.59       95.62       95.66       95.71       95.78       95.87       96.00    
        96.15       96.31       96.47       96.62       96.71       96.62       95.34       97.44       98.34       99.03    
  14    95.61       95.62       95.65       95.68       95.72       95.77       95.83       95.91       96.01       96.14    
        96.28       96.44       96.59       96.75       96.88       96.99       97.09       97.78       98.44       99.04    
  15    95.69       95.70       95.72       95.76       95.80       95.86       95.93       96.02       96.13       96.25    
        96.40       96.55       96.72       96.89       97.08       97.29       97.57       98.03       98.55       99.05    
  16    95.75       95.77       95.79       95.83       95.88       95.94       96.02       96.11       96.22       96.35    
        96.50       96.66       96.84       97.03       97.24       97.49       97.80       98.19       98.63       99.06    
  17    95.81       95.82       95.85       95.88       95.94       96.00       96.08       96.18       96.30       96.43    
        96.58       96.75       96.93       97.14       97.37       97.64       97.95       98.30       98.69       99.06    
  18    95.85       95.86       95.89       95.93       95.98       96.05       96.13       96.23       96.35       96.49    
        96.64       96.81       97.01       97.22       97.46       97.73       98.04       98.37       98.73       99.07    
  19    95.88       95.89       95.92       95.96       96.01       96.08       96.17       96.27       96.39       96.53    
        96.68       96.86       97.06       97.28       97.52       97.79       98.09       98.41       98.75       99.07    
  20    95.89       95.90       95.93       95.97       96.03       96.10       96.18       96.29       96.41       96.55    
        96.70       96.88       97.08       97.30       97.55       97.82       98.11       98.43       98.76       99.07    

 HEAD WILL BE SAVED ON UNIT 1015 AT END OF TIME STEP    8, STRESS PERIOD    1


  VOLUME BUDGET FOR ENTIRE MODEL AT END OF TIME STEP    8, STRESS PERIOD   1
  ---------------------------------------------------------------------------------------------------

     CUMULATIVE VOLUME      L**3       RATES FOR THIS TIME STEP      L**3/T          PACKAGE NAME    
     ------------------                 ------------------------                     ----------------

           IN:                                      IN:
           ---                                      ---
              STO-SS =           0.0000                STO-SS =           0.0000     STORAGE         
              STO-SY =           0.0000                STO-SY =           0.0000     STORAGE         
                 WEL =           0.0000                   WEL =           0.0000     WEL_0           
                 CHD =       4.0156E-02                   CHD =       5.0194E-02     CHD_0           

            TOTAL IN =       4.0156E-02              TOTAL IN =       5.0194E-02

          OUT:                                     OUT:
          ----                                     ----
              STO-SS =           0.0000                STO-SS =           0.0000     STORAGE         
              STO-SY =           0.0000                STO-SY =           0.0000     STORAGE         
                 WEL =       3.6000E-02                   WEL =       4.5000E-02     WEL_0           
                 CHD =       4.1475E-03                   CHD =       5.1816E-03     CHD_0           

           TOTAL OUT =       4.0147E-02             TOTAL OUT =       5.0182E-02

            IN - OUT =       8.9144E-06              IN - OUT =       1.2244E-05

 PERCENT DISCREPANCY =           0.02     PERCENT DISCREPANCY =           0.02




         TIME SUMMARY AT END OF TIME STEP    8 IN STRESS PERIOD    1
                    SECONDS     MINUTES      HOURS       DAYS        YEARS
                    -----------------------------------------------------------
   TIME STEP LENGTH 0.10000     1.66667E-03 2.77778E-05 1.15741E-06 3.16881E-09
 STRESS PERIOD TIME 0.80000     1.33333E-02 2.22222E-04 9.25926E-06 2.53505E-08
         TOTAL TIME 0.80000     1.33333E-02 2.22222E-04 9.25926E-06 2.53505E-08
 UBDSV1 SAVING           STO-SS ON UNIT   1014 AT TIME STEP      9, STRESS PERIOD      1
 UBDSV1 SAVING           STO-SY ON UNIT   1014 AT TIME STEP      9, STRESS PERIOD      1
 UBDSV1 SAVING     FLOW-JA-FACE ON UNIT   1014 AT TIME STEP      9, STRESS PERIOD      1
 UBDSV06 SAVING              WEL IN MODEL EX2              PACKAGE EX2             CONNECTED TO MODEL EX2              PACKAGE WEL_0            ON UNIT   1014 AT TIME STEP      9, STRESS PERIOD      1
1
  HEAD IN LAYER   1 AT END OF TIME STEP   9 IN STRESS PERIOD    1
  ---------------------------------------------------------------------------

            1           2           3           4           5           6           7           8           9          10
           11          12          13          14          15          16          17          18          19          20
 ........................................................................................................................
   1    95.10       95.15       95.21       95.26       95.32       95.38       95.45       95.53       95.62       95.71    
        95.81       95.92       96.03       96.14       96.24       96.34       96.41       96.48       96.52       96.54    
   2    95.10       95.15       95.20       95.26       95.31       95.37       95.44       95.52       95.61       95.70    
        95.81       95.92       96.03       96.15       96.25       96.35       96.43       96.50       96.54       96.57    
   3    95.10       95.15       95.20       95.25       95.30       95.36       95.42       95.50       95.59       95.69    
        95.80       95.92       96.04       96.16       96.27       96.37       96.46       96.53       96.59       96.61    
   4    95.10       95.15       95.20       95.24       95.29       95.34       95.40       95.47       95.55       95.66    
        95.78       95.91       96.04       96.17       96.30       96.41       96.51       96.59       96.65       96.68    
   5    95.10       95.15       95.19       95.23       95.27       95.31       95.36       95.41       95.50       95.61    
        95.75       95.90       96.05       96.20       96.34       96.47       96.58       96.68       96.75       96.78    
   6    95.10       95.15       95.19       95.22       95.25       95.28       95.30       95.34       95.41       95.54    
        95.71       95.88       96.06       96.22       96.38       96.53       96.67       96.79       96.87       96.92    
   7    95.10       95.15       95.19       95.22       95.24       95.24       95.24       95.23       95.26       95.44    
        95.65       95.87       96.07       96.26       96.44       96.61       96.77       96.92       97.04       97.11    
   8    95.10       95.16       95.20       95.23       95.24       95.22       95.17       95.07       94.97       95.29    
        95.60       95.86       96.09       96.30       96.50       96.70       96.89       97.09       97.25       97.36    
   9    95.10       95.18       95.23       95.26       95.27       95.24       95.15       94.91       94.21       95.13    
        95.58       95.88       96.13       96.35       96.56       96.78       97.02       97.28       97.53       97.71    
  10    95.10       95.23       95.29       95.32       95.33       95.31       95.26       95.17       95.07       95.39    
        95.70       95.96       96.20       96.41       96.62       96.84       97.11       97.47       97.86       98.22    
  11    95.28       95.33       95.37       95.40       95.42       95.42       95.42       95.41       95.46       95.63    
        95.85       96.07       96.28       96.47       96.65       96.85       97.13       97.61       98.22       99.10    
  12    95.41       95.43       95.46       95.49       95.52       95.54       95.57       95.62       95.69       95.83    
        96.01       96.19       96.37       96.53       96.67       96.78       96.94       97.60       98.32       99.10    
  13    95.52       95.53       95.56       95.59       95.62       95.66       95.71       95.78       95.87       96.00    
        96.15       96.31       96.47       96.62       96.71       96.69       96.41       97.51       98.35       99.10    
  14    95.61       95.62       95.65       95.68       95.72       95.77       95.83       95.91       96.01       96.14    
        96.28       96.44       96.59       96.75       96.89       97.00       97.16       97.79       98.45       99.10    
  15    95.69       95.70       95.72       95.76       95.80       95.86       95.93       96.02       96.13       96.25    
        96.40       96.55       96.72       96.89       97.08       97.29       97.57       98.03       98.56       99.10    
  16    95.75       95.77       95.79       95.83       95.88       95.94       96.02       96.11       96.22       96.35    
        96.50       96.66       96.84       97.03       97.24       97.49       97.80       98.20       98.64       99.10    
  17    95.81       95.82       95.85       95.88       95.94       96.00       96.08       96.18       96.30       96.43    
        96.58       96.75       96.93       97.14       97.37       97.64       97.95       98.30       98.69       99.10    
  18    95.85       95.86       95.89       95.93       95.98       96.05       96.13       96.23       96.35       96.49    
        96.64       96.81       97.01       97.22       97.46       97.73       98.04       98.37       98.73       99.10    
  19    95.88       95.89       95.92       95.96       96.01       96.08       96.17       96.27       96.39       96.53    
        96.68       96.86       97.06       97.28       97.52       97.79       98.09       98.41       98.75       99.10    
  20    95.89       95.90       95.93       95.97       96.03       96.10       96.18       96.29       96.41       96.55    
        96.70       96.88       97.08       97.30       97.55       97.82       98.11       98.43       98.76       99.10    
1
  HEAD IN LAYER   2 AT END OF TIME STEP   9 IN STRESS PERIOD    1
  ---------------------------------------------------------------------------

            1           2           3           4           5           6           7           8           9          10
           11          12          13          14          15          16          17          18          19          20
 ........................................................................................................................
   1    95.10       95.15       95.21       95.26       95.32       95.38       95.45       95.53       95.62       95.71    
        95.81       95.92       96.03       96.14       96.24       96.34       96.41       96.48       96.52       96.54    
   2    95.10       95.15       95.20       95.26       95.31       95.37       95.44       95.52       95.61       95.70    
        95.81       95.92       96.03       96.15       96.25       96.35       96.43       96.50       96.54       96.57    
   3    95.10       95.15       95.20       95.25       95.30       95.36       95.42       95.50       95.59       95.69    
        95.80       95.92       96.04       96.16       96.27       96.37       96.46       96.53       96.59       96.61    
   4    95.10       95.15       95.20       95.24       95.29       95.34       95.40       95.47       95.55       95.66    
        95.78       95.91       96.04       96.17       96.30       96.41       96.51       96.59       96.65       96.68    
   5    95.10       95.15       95.19       95.23       95.27       95.31       95.36       95.41       95.50       95.61    
        95.75       95.90       96.05       96.20       96.34       96.47       96.58       96.68       96.75       96.78    
   6    95.10       95.15       95.19       95.22       95.25       95.28       95.30       95.34       95.41       95.54    
        95.71       95.88       96.06       96.22       96.38       96.53       96.67       96.79       96.87       96.92    
   7    95.10       95.15       95.19       95.22       95.24       95.24       95.24       95.23       95.26       95.44    
        95.65       95.87       96.07       96.26       96.44       96.61       96.77       96.92       97.04       97.11    
   8    95.11       95.16       95.20       95.23       95.24       95.22       95.17       95.07       94.98       95.29    
        95.60       95.86       96.09       96.30       96.50       96.70       96.89       97.09       97.25       97.36    
   9    95.11       95.18       95.23       95.26       95.27       95.24       95.15       94.92       94.44       95.14    
        95.58       95.88       96.13       96.35       96.56       96.78       97.02       97.28       97.53       97.70    
  10    95.12       95.23       95.29       95.32       95.33       95.31       95.26       95.17       95.08       95.39    
        95.70       95.96       96.20       96.41       96.62       96.84       97.11       97.47       97.86       98.21    
  11    95.28       95.33       95.37       95.40       95.42       95.42       95.42       95.41       95.46       95.63    
        95.85       96.07       96.28       96.47       96.65       96.85       97.12       97.60       98.21       98.96    
  12    95.41       95.43       95.46       95.49       95.52       95.54       95.57       95.62       95.69       95.83    
        96.01       96.19       96.37       96.53       96.67       96.78       96.88       97.59       98.31       99.03    
  13    95.52       95.53       95.56       95.59       95.62       95.66       95.71       95.78       95.87       96.00    
        96.15       96.31       96.47       96.62       96.71       96.62       95.34       97.44       98.34       99.03    
  14    95.61       95.62       95.65       95.68       95.72       95.77       95.83       95.91       96.01       96.14    
        96.28       96.44       96.59       96.75       96.88       96.99       97.09       97.78       98.44       99.04    
  15    95.69       95.70       95.72       95.76       95.80       95.86       95.93       96.02       96.13       96.25    
        96.40       96.55       96.72       96.89       97.08       97.29       97.57       98.03       98.55       99.05    
  16    95.75       95.77       95.79       95.83       95.88       95.94       96.02       96.11       96.22       96.35    
        96.50       96.66       96.84       97.03       97.24       97.49       97.80       98.19       98.63       99.06    
  17    95.81       95.82       95.85       95.88       95.94       96.00       96.08       96.18       96.30       96.43    
        96.58       96.75       96.93       97.14       97.37       97.64       97.95       98.30       98.69       99.06    
  18    95.85       95.86       95.89       95.93       95.98       96.05       96.13       96.23       96.35       96.49    
        96.64       96.81       97.01       97.22       97.46       97.73       98.04       98.37       98.73       99.07    
  19    95.88       95.89       95.92       95.96       96.01       96.08       96.17       96.27       96.39       96.53    
        96.68       96.86       97.06       97.28       97.52       97.79       98.09       98.41       98.75       99.07    
  20    95.89       95.90       95.93       95.97       96.03       96.10       96.18       96.29       96.41       96.55    
        96.70       96.88       97.08       97.30       97.55       97.82       98.11       98.43       98.76       99.07    

 HEAD WILL BE SAVED ON UNIT 1015 AT END OF TIME STEP    9, STRESS PERIOD    1


  VOLUME BUDGET FOR ENTIRE MODEL AT END OF TIME STEP    9, STRESS PERIOD   1
  ---------------------------------------------------------------------------------------------------

     CUMULATIVE VOLUME      L**3       RATES FOR THIS TIME STEP      L**3/T          PACKAGE NAME    
     ------------------                 ------------------------                     ----------------

           IN:                                      IN:
           ---                                      ---
              STO-SS =           0.0000                STO-SS =           0.0000     STORAGE         
              STO-SY =           0.0000                STO-SY =           0.0000     STORAGE         
                 WEL =           0.0000                   WEL =           0.0000     WEL_0           
                 CHD =       4.5176E-02                   CHD =       5.0194E-02     CHD_0           

            TOTAL IN =       4.5176E-02              TOTAL IN =       5.0194E-02

          OUT:                                     OUT:
          ----                                     ----
              STO-SS =           0.0000                STO-SS =           0.0000     STORAGE         
              STO-SY =           0.0000                STO-SY =           0.0000     STORAGE         
                 WEL =       4.0500E-02                   WEL =       4.5000E-02     WEL_0           
                 CHD =       4.6656E-03                   CHD =       5.1812E-03     CHD_0           

           TOTAL OUT =       4.5166E-02             TOTAL OUT =       5.0181E-02

            IN - OUT =       1.0158E-05              IN - OUT =       1.2435E-05

 PERCENT DISCREPANCY =           0.02     PERCENT DISCREPANCY =           0.02




         TIME SUMMARY AT END OF TIME STEP    9 IN STRESS PERIOD    1
                    SECONDS     MINUTES      HOURS       DAYS        YEARS
                    -----------------------------------------------------------
   TIME STEP LENGTH 0.10000     1.66667E-03 2.77778E-05 1.15741E-06 3.16881E-09
 STRESS PERIOD TIME 0.90000     1.50000E-02 2.50000E-04 1.04167E-05 2.85193E-08
         TOTAL TIME 0.90000     1.50000E-02 2.50000E-04 1.04167E-05 2.85193E-08
 UBDSV1 SAVING           STO-SS ON UNIT   1014 AT TIME STEP     10, STRESS PERIOD      1
 UBDSV1 SAVING           STO-SY ON UNIT   1014 AT TIME STEP     10, STRESS PERIOD      1
 UBDSV1 SAVING     FLOW-JA-FACE ON UNIT   1014 AT TIME STEP     10, STRESS PERIOD      1
 UBDSV06 SAVING              WEL IN MODEL EX2              PACKAGE EX2             CONNECTED TO MODEL EX2              PACKAGE WEL_0            ON UNIT   1014 AT TIME STEP     10, STRESS PERIOD      1
1
  HEAD IN LAYER   1 AT END OF TIME STEP  10 IN STRESS PERIOD    1
  ---------------------------------------------------------------------------

            1           2           3           4           5           6           7           8           9          10
           11          12          13          14          15          16          17          18          19          20
 ........................................................................................................................
   1    95.10       95.15       95.21       95.26       95.32       95.38       95.45       95.53       95.62       95.71    
        95.81       95.92       96.03       96.14       96.24       96.34       96.41       96.48       96.52       96.54    
   2    95.10       95.15       95.20       95.26       95.31       95.37       95.44       95.52       95.61       95.70    
        95.81       95.92       96.03       96.15       96.25       96.35       96.43       96.50       96.54       96.57    
   3    95.10       95.15       95.20       95.25       95.30       95.36       95.42       95.50       95.59       95.69    
        95.80       95.92       96.04       96.16       96.27       96.37       96.46       96.53       96.59       96.61    
   4    95.10       95.15       95.20       95.24       95.29       95.34       95.40       95.47       95.55       95.66    
        95.78       95.91       96.04       96.17       96.30       96.41       96.51       96.59       96.65       96.68    
   5    95.10       95.15       95.19       95.23       95.27       95.31       95.36       95.41       95.50       95.61    
        95.75       95.90       96.05       96.20       96.34       96.47       96.58       96.68       96.75       96.78    
   6    95.10       95.15       95.19       95.22       95.25       95.28       95.30       95.34       95.41       95.54    
        95.71       95.88       96.06       96.22       96.38       96.53       96.67       96.79       96.87       96.92    
   7    95.10       95.15       95.19       95.22       95.24       95.24       95.24       95.23       95.26       95.44    
        95.65       95.87       96.07       96.26       96.44       96.61       96.77       96.92       97.04       97.11    
   8    95.10       95.16       95.20       95.23       95.24       95.22       95.17       95.07       94.97       95.29    
        95.60       95.86       96.09       96.30       96.50       96.70       96.89       97.09       97.25       97.36    
   9    95.10       95.18       95.23       95.26       95.27       95.24       95.15       94.91       94.21       95.13    
        95.58       95.88       96.13       96.35       96.56       96.78       97.02       97.28       97.53       97.71    
  10    95.10       95.23       95.29       95.32       95.33       95.31       95.26       95.17       95.07       95.39    
        95.70       95.96       96.20       96.41       96.62       96.84       97.11       97.47       97.86       98.22    
  11    95.28       95.33       95.37       95.40       95.42       95.42       95.42       95.41       95.46       95.63    
        95.85       96.07       96.28       96.47       96.65       96.85       97.13       97.61       98.22       99.10    
  12    95.41       95.43       95.46       95.49       95.52       95.54       95.57       95.62       95.69       95.83    
        96.01       96.19       96.37       96.53       96.67       96.78       96.94       97.60       98.32       99.10    
  13    95.52       95.53       95.56       95.59       95.62       95.66       95.71       95.78       95.87       96.00    
        96.15       96.31       96.47       96.62       96.71       96.69       96.41       97.51       98.35       99.10    
  14    95.61       95.62       95.65       95.68       95.72       95.77       95.83       95.91       96.01       96.14    
        96.28       96.44       96.59       96.75       96.89       97.00       97.16       97.79       98.45       99.10    
  15    95.69       95.70       95.72       95.76       95.80       95.86       95.93       96.02       96.13       96.25    
        96.40       96.55       96.72       96.89       97.08       97.29       97.57       98.03       98.56       99.10    
  16    95.75       95.77       95.79       95.83       95.88       95.94       96.02       96.11       96.22       96.35    
        96.50       96.66       96.84       97.03       97.24       97.49       97.80       98.20       98.64       99.10    
  17    95.81       95.82       95.85       95.88       95.94       96.00       96.08       96.18       96.30       96.43    
        96.58       96.75       96.93       97.14       97.37       97.64       97.95       98.30       98.69       99.10    
  18    95.85       95.86       95.89       95.93       95.98       96.05       96.13       96.23       96.35       96.49    
        96.64       96.81       97.01       97.22       97.46       97.73       98.04       98.37       98.73       99.10    
  19    95.88       95.89       95.92       95.96       96.01       96.08       96.17       96.27       96.39       96.53    
        96.68       96.86       97.06       97.28       97.52       97.79       98.09       98.41       98.75       99.10    
  20    95.89       95.90       95.93       95.97       96.03       96.10       96.18       96.29       96.41       96.55    
        96.70       96.88       97.08       97.30       97.55       97.82       98.11       98.43       98.76       99.10    
1
  HEAD IN LAYER   2 AT END OF TIME STEP  10 IN STRESS PERIOD    1
  ---------------------------------------------------------------------------

            1           2           3           4           5           6           7           8           9          10
           11          12          13          14          15          16          17          18          19          20
 ........................................................................................................................
   1    95.10       95.15       95.21       95.26       95.32       95.38       95.45       95.53       95.62       95.71    
        95.81       95.92       96.03       96.14       96.24       96.34       96.41       96.48       96.52       96.54    
   2    95.10       95.15       95.20       95.26       95.31       95.37       95.44       95.52       95.61       95.70    
        95.81       95.92       96.03       96.15       96.25       96.35       96.43       96.50       96.54       96.57    
   3    95.10       95.15       95.20       95.25       95.30       95.36       95.42       95.50       95.59       95.69    
        95.80       95.92       96.04       96.16       96.27       96.37       96.46       96.53       96.59       96.61    
   4    95.10       95.15       95.20       95.24       95.29       95.34       95.40       95.47       95.55       95.66    
        95.78       95.91       96.04       96.17       96.30       96.41       96.51       96.59       96.65       96.68    
   5    95.10       95.15       95.19       95.23       95.27       95.31       95.36       95.41       95.50       95.61    
        95.75       95.90       96.05       96.20       96.34       96.47       96.58       96.68       96.75       96.78    
   6    95.10       95.15       95.19       95.22       95.25       95.28       95.30       95.34       95.41       95.54    
        95.71       95.88       96.06       96.22       96.38       96.53       96.67       96.79       96.87       96.92    
   7    95.10       95.15       95.19       95.22       95.24       95.24       95.24       95.23       95.26       95.44    
        95.65       95.87       96.07       96.26       96.44       96.61       96.77       96.92       97.04       97.11    
   8    95.11       95.16       95.20       95.23       95.24       95.22       95.17       95.07       94.98       95.29    
        95.60       95.86       96.09       96.30       96.50       96.70       96.89       97.09       97.25       97.36    
   9    95.11       95.18       95.23       95.26       95.27       95.24       95.15       94.92       94.44       95.14    
        95.58       95.88       96.13       96.35       96.56       96.78       97.02       97.28       97.53       97.70    
  10    95.12       95.23       95.29       95.32       95.33       95.31       95.26       95.17       95.08       95.39    
        95.70       95.96       96.20       96.41       96.62       96.84       97.11       97.47       97.86       98.21    
  11    95.28       95.33       95.37       95.40       95.42       95.42       95.42       95.41       95.46       95.63    
        95.85       96.07       96.28       96.47       96.65       96.85       97.12       97.60       98.21       98.96    
  12    95.41       95.43       95.46       95.49       95.52       95.54       95.57       95.62       95.69       95.83    
        96.01       96.19       96.37       96.53       96.67       96.78       96.88       97.59       98.31       99.03    
  13    95.52       95.53       95.56       95.59       95.62       95.66       95.71       95.78       95.87       96.00    
        96.15       96.31       96.47       96.62       96.71       96.62       95.34       97.44       98.34       99.03    
  14    95.61       95.62       95.65       95.68       95.72       95.77       95.83       95.91       96.01       96.14    
        96.28       96.44       96.59       96.75       96.88       96.99       97.09       97.78       98.44       99.04    
  15    95.69       95.70       95.72       95.76       95.80       95.86       95.93       96.02       96.13       96.25    
        96.40       96.55       96.72       96.89       97.08       97.29       97.57       98.03       98.55       99.05    
  16    95.75       95.77       95.79       95.83       95.88       95.94       96.02       96.11       96.22       96.35    
        96.50       96.66       96.84       97.03       97.24       97.49       97.80       98.19       98.63       99.06    
  17    95.81       95.82       95.85       95.88       95.94       96.00       96.08       96.18       96.30       96.43    
        96.58       96.75       96.93       97.14       97.37       97.64       97.95       98.30       98.69       99.06    
  18    95.85       95.86       95.89       95.93       95.98       96.05       96.13       96.23       96.35       96.49    
        96.64       96.81       97.01       97.22       97.46       97.73       98.04       98.37       98.73       99.07    
  19    95.88       95.89       95.92       95.96       96.01       96.08       96.17       96.27       96.39       96.53    
        96.68       96.86       97.06       97.28       97.52       97.79       98.09       98.41       98.75       99.07    
  20    95.89       95.90       95.93       95.97       96.03       96.10       96.18       96.29       96.41       96.55    
        96.70       96.88       97.08       97.30       97.55       97.82       98.11       98.43       98.76       99.07    

 HEAD WILL BE SAVED ON UNIT 1015 AT END OF TIME STEP   10, STRESS PERIOD    1


  VOLUME BUDGET FOR ENTIRE MODEL AT END OF TIME STEP   10, STRESS PERIOD   1
  ---------------------------------------------------------------------------------------------------

     CUMULATIVE VOLUME      L**3       RATES FOR THIS TIME STEP      L**3/T          PACKAGE NAME    
     ------------------                 ------------------------                     ----------------

           IN:                                      IN:
           ---                                      ---
              STO-SS =           0.0000                STO-SS =           0.0000     STORAGE         
              STO-SY =           0.0000                STO-SY =           0.0000     STORAGE         
                 WEL =           0.0000                   WEL =           0.0000     WEL_0           
                 CHD =       5.0195E-02                   CHD =       5.0193E-02     CHD_0           

            TOTAL IN =       5.0195E-02              TOTAL IN =       5.0193E-02

          OUT:                                     OUT:
          ----                                     ----
              STO-SS =           0.0000                STO-SS =           0.0000     STORAGE         
              STO-SY =           0.0000                STO-SY =           0.0000     STORAGE         
                 WEL =       4.5000E-02                   WEL =       4.5000E-02     WEL_0           
                 CHD =       5.1837E-03                   CHD =       5.1806E-03     CHD_0           

           TOTAL OUT =       5.0184E-02             TOTAL OUT =       5.0181E-02

            IN - OUT =       1.1407E-05              IN - OUT =       1.2487E-05

 PERCENT DISCREPANCY =           0.02     PERCENT DISCREPANCY =           0.02




         TIME SUMMARY AT END OF TIME STEP   10 IN STRESS PERIOD    1
                    SECONDS     MINUTES      HOURS       DAYS        YEARS
                    -----------------------------------------------------------
   TIME STEP LENGTH 0.10000     1.66667E-03 2.77778E-05 1.15741E-06 3.16881E-09
 STRESS PERIOD TIME  1.0000     1.66667E-02 2.77778E-04 1.15741E-05 3.16881E-08
         TOTAL TIME  1.0000     1.66667E-02 2.77778E-04 1.15741E-05 3.16881E-08

 BEGIN READING OUTPUT CONTROL FOR STRESS PERIOD 2
      ALL TIME STEPS WILL BE SAVED
      ALL TIME STEPS WILL BE SAVED

 END READING OUTPUT CONTROL FOR STRESS PERIOD 2


 UPDATING STORAGE VALUES
 END UPDATING STORAGE VALUES


 STRESS PERIOD 2 IS TRANSIENT


 REUSING CHDS FROM LAST STRESS PERIOD
 UBDSV1 SAVING           STO-SS ON UNIT   1014 AT TIME STEP      1, STRESS PERIOD      2
 UBDSV1 SAVING           STO-SY ON UNIT   1014 AT TIME STEP      1, STRESS PERIOD      2
 UBDSV1 SAVING     FLOW-JA-FACE ON UNIT   1014 AT TIME STEP      1, STRESS PERIOD      2
 UBDSV06 SAVING              WEL IN MODEL EX2              PACKAGE EX2             CONNECTED TO MODEL EX2              PACKAGE WEL_0            ON UNIT   1014 AT TIME STEP      1, STRESS PERIOD      2

 HEAD WILL BE SAVED ON UNIT 1015 AT END OF TIME STEP    1, STRESS PERIOD    2
 UBDSV1 SAVING           STO-SS ON UNIT   1014 AT TIME STEP      2, STRESS PERIOD      2
 UBDSV1 SAVING           STO-SY ON UNIT   1014 AT TIME STEP      2, STRESS PERIOD      2
 UBDSV1 SAVING     FLOW-JA-FACE ON UNIT   1014 AT TIME STEP      2, STRESS PERIOD      2
 UBDSV06 SAVING              WEL IN MODEL EX2              PACKAGE EX2             CONNECTED TO MODEL EX2              PACKAGE WEL_0            ON UNIT   1014 AT TIME STEP      2, STRESS PERIOD      2

 HEAD WILL BE SAVED ON UNIT 1015 AT END OF TIME STEP    2, STRESS PERIOD    2
 UBDSV1 SAVING           STO-SS ON UNIT   1014 AT TIME STEP      3, STRESS PERIOD      2
 UBDSV1 SAVING           STO-SY ON UNIT   1014 AT TIME STEP      3, STRESS PERIOD      2
 UBDSV1 SAVING     FLOW-JA-FACE ON UNIT   1014 AT TIME STEP      3, STRESS PERIOD      2
 UBDSV06 SAVING              WEL IN MODEL EX2              PACKAGE EX2             CONNECTED TO MODEL EX2              PACKAGE WEL_0            ON UNIT   1014 AT TIME STEP      3, STRESS PERIOD      2

 HEAD WILL BE SAVED ON UNIT 1015 AT END OF TIME STEP    3, STRESS PERIOD    2
 UBDSV1 SAVING           STO-SS ON UNIT   1014 AT TIME STEP      4, STRESS PERIOD      2
 UBDSV1 SAVING           STO-SY ON UNIT   1014 AT TIME STEP      4, STRESS PERIOD      2
 UBDSV1 SAVING     FLOW-JA-FACE ON UNIT   1014 AT TIME STEP      4, STRESS PERIOD      2
 UBDSV06 SAVING              WEL IN MODEL EX2              PACKAGE EX2             CONNECTED TO MODEL EX2              PACKAGE WEL_0            ON UNIT   1014 AT TIME STEP      4, STRESS PERIOD      2

 HEAD WILL BE SAVED ON UNIT 1015 AT END OF TIME STEP    4, STRESS PERIOD    2
 UBDSV1 SAVING           STO-SS ON UNIT   1014 AT TIME STEP      5, STRESS PERIOD      2
 UBDSV1 SAVING           STO-SY ON UNIT   1014 AT TIME STEP      5, STRESS PERIOD      2
 UBDSV1 SAVING     FLOW-JA-FACE ON UNIT   1014 AT TIME STEP      5, STRESS PERIOD      2
 UBDSV06 SAVING              WEL IN MODEL EX2              PACKAGE EX2             CONNECTED TO MODEL EX2              PACKAGE WEL_0            ON UNIT   1014 AT TIME STEP      5, STRESS PERIOD      2

 HEAD WILL BE SAVED ON UNIT 1015 AT END OF TIME STEP    5, STRESS PERIOD    2
 UBDSV1 SAVING           STO-SS ON UNIT   1014 AT TIME STEP      6, STRESS PERIOD      2
 UBDSV1 SAVING           STO-SY ON UNIT   1014 AT TIME STEP      6, STRESS PERIOD      2
 UBDSV1 SAVING     FLOW-JA-FACE ON UNIT   1014 AT TIME STEP      6, STRESS PERIOD      2
 UBDSV06 SAVING              WEL IN MODEL EX2              PACKAGE EX2             CONNECTED TO MODEL EX2              PACKAGE WEL_0            ON UNIT   1014 AT TIME STEP      6, STRESS PERIOD      2

 HEAD WILL BE SAVED ON UNIT 1015 AT END OF TIME STEP    6, STRESS PERIOD    2
 UBDSV1 SAVING           STO-SS ON UNIT   1014 AT TIME STEP      7, STRESS PERIOD      2
 UBDSV1 SAVING           STO-SY ON UNIT   1014 AT TIME STEP      7, STRESS PERIOD      2
 UBDSV1 SAVING     FLOW-JA-FACE ON UNIT   1014 AT TIME STEP      7, STRESS PERIOD      2
 UBDSV06 SAVING              WEL IN MODEL EX2              PACKAGE EX2             CONNECTED TO MODEL EX2              PACKAGE WEL_0            ON UNIT   1014 AT TIME STEP      7, STRESS PERIOD      2

 HEAD WILL BE SAVED ON UNIT 1015 AT END OF TIME STEP    7, STRESS PERIOD    2
 UBDSV1 SAVING           STO-SS ON UNIT   1014 AT TIME STEP      8, STRESS PERIOD      2
 UBDSV1 SAVING           STO-SY ON UNIT   1014 AT TIME STEP      8, STRESS PERIOD      2
 UBDSV1 SAVING     FLOW-JA-FACE ON UNIT   1014 AT TIME STEP      8, STRESS PERIOD      2
 UBDSV06 SAVING              WEL IN MODEL EX2              PACKAGE EX2             CONNECTED TO MODEL EX2              PACKAGE WEL_0            ON UNIT   1014 AT TIME STEP      8, STRESS PERIOD      2

 HEAD WILL BE SAVED ON UNIT 1015 AT END OF TIME STEP    8, STRESS PERIOD    2
 UBDSV1 SAVING           STO-SS ON UNIT   1014 AT TIME STEP      9, STRESS PERIOD      2
 UBDSV1 SAVING           STO-SY ON UNIT   1014 AT TIME STEP      9, STRESS PERIOD      2
 UBDSV1 SAVING     FLOW-JA-FACE ON UNIT   1014 AT TIME STEP      9, STRESS PERIOD      2
 UBDSV06 SAVING              WEL IN MODEL EX2              PACKAGE EX2             CONNECTED TO MODEL EX2              PACKAGE WEL_0            ON UNIT   1014 AT TIME STEP      9, STRESS PERIOD      2

 HEAD WILL BE SAVED ON UNIT 1015 AT END OF TIME STEP    9, STRESS PERIOD    2
 UBDSV1 SAVING           STO-SS ON UNIT   1014 AT TIME STEP     10, STRESS PERIOD      2
 UBDSV1 SAVING           STO-SY ON UNIT   1014 AT TIME STEP     10, STRESS PERIOD      2
 UBDSV1 SAVING     FLOW-JA-FACE ON UNIT   1014 AT TIME STEP     10, STRESS PERIOD      2
 UBDSV06 SAVING              WEL IN MODEL EX2              PACKAGE EX2             CONNECTED TO MODEL EX2              PACKAGE WEL_0            ON UNIT   1014 AT TIME STEP     10, STRESS PERIOD      2

 HEAD WILL BE SAVED ON UNIT 1015 AT END OF TIME STEP   10, STRESS PERIOD    2
 UBDSV1 SAVING           STO-SS ON UNIT   1014 AT TIME STEP     11, STRESS PERIOD      2
 UBDSV1 SAVING           STO-SY ON UNIT   1014 AT TIME STEP     11, STRESS PERIOD      2
 UBDSV1 SAVING     FLOW-JA-FACE ON UNIT   1014 AT TIME STEP     11, STRESS PERIOD      2
 UBDSV06 SAVING              WEL IN MODEL EX2              PACKAGE EX2             CONNECTED TO MODEL EX2              PACKAGE WEL_0            ON UNIT   1014 AT TIME STEP     11, STRESS PERIOD      2

 HEAD WILL BE SAVED ON UNIT 1015 AT END OF TIME STEP   11, STRESS PERIOD    2
 UBDSV1 SAVING           STO-SS ON UNIT   1014 AT TIME STEP     12, STRESS PERIOD      2
 UBDSV1 SAVING           STO-SY ON UNIT   1014 AT TIME STEP     12, STRESS PERIOD      2
 UBDSV1 SAVING     FLOW-JA-FACE ON UNIT   1014 AT TIME STEP     12, STRESS PERIOD      2
 UBDSV06 SAVING              WEL IN MODEL EX2              PACKAGE EX2             CONNECTED TO MODEL EX2              PACKAGE WEL_0            ON UNIT   1014 AT TIME STEP     12, STRESS PERIOD      2

 HEAD WILL BE SAVED ON UNIT 1015 AT END OF TIME STEP   12, STRESS PERIOD    2
 UBDSV1 SAVING           STO-SS ON UNIT   1014 AT TIME STEP     13, STRESS PERIOD      2
 UBDSV1 SAVING           STO-SY ON UNIT   1014 AT TIME STEP     13, STRESS PERIOD      2
 UBDSV1 SAVING     FLOW-JA-FACE ON UNIT   1014 AT TIME STEP     13, STRESS PERIOD      2
 UBDSV06 SAVING              WEL IN MODEL EX2              PACKAGE EX2             CONNECTED TO MODEL EX2              PACKAGE WEL_0            ON UNIT   1014 AT TIME STEP     13, STRESS PERIOD      2

 HEAD WILL BE SAVED ON UNIT 1015 AT END OF TIME STEP   13, STRESS PERIOD    2
 UBDSV1 SAVING           STO-SS ON UNIT   1014 AT TIME STEP     14, STRESS PERIOD      2
 UBDSV1 SAVING           STO-SY ON UNIT   1014 AT TIME STEP     14, STRESS PERIOD      2
 UBDSV1 SAVING     FLOW-JA-FACE ON UNIT   1014 AT TIME STEP     14, STRESS PERIOD      2
 UBDSV06 SAVING              WEL IN MODEL EX2              PACKAGE EX2             CONNECTED TO MODEL EX2              PACKAGE WEL_0            ON UNIT   1014 AT TIME STEP     14, STRESS PERIOD      2

 HEAD WILL BE SAVED ON UNIT 1015 AT END OF TIME STEP   14, STRESS PERIOD    2
 UBDSV1 SAVING           STO-SS ON UNIT   1014 AT TIME STEP     15, STRESS PERIOD      2
 UBDSV1 SAVING           STO-SY ON UNIT   1014 AT TIME STEP     15, STRESS PERIOD      2
 UBDSV1 SAVING     FLOW-JA-FACE ON UNIT   1014 AT TIME STEP     15, STRESS PERIOD      2
 UBDSV06 SAVING              WEL IN MODEL EX2              PACKAGE EX2             CONNECTED TO MODEL EX2              PACKAGE WEL_0            ON UNIT   1014 AT TIME STEP     15, STRESS PERIOD      2

 HEAD WILL BE SAVED ON UNIT 1015 AT END OF TIME STEP   15, STRESS PERIOD    2
 UBDSV1 SAVING           STO-SS ON UNIT   1014 AT TIME STEP     16, STRESS PERIOD      2
 UBDSV1 SAVING           STO-SY ON UNIT   1014 AT TIME STEP     16, STRESS PERIOD      2
 UBDSV1 SAVING     FLOW-JA-FACE ON UNIT   1014 AT TIME STEP     16, STRESS PERIOD      2
 UBDSV06 SAVING              WEL IN MODEL EX2              PACKAGE EX2             CONNECTED TO MODEL EX2              PACKAGE WEL_0            ON UNIT   1014 AT TIME STEP     16, STRESS PERIOD      2

 HEAD WILL BE SAVED ON UNIT 1015 AT END OF TIME STEP   16, STRESS PERIOD    2
 UBDSV1 SAVING           STO-SS ON UNIT   1014 AT TIME STEP     17, STRESS PERIOD      2
 UBDSV1 SAVING           STO-SY ON UNIT   1014 AT TIME STEP     17, STRESS PERIOD      2
 UBDSV1 SAVING     FLOW-JA-FACE ON UNIT   1014 AT TIME STEP     17, STRESS PERIOD      2
 UBDSV06 SAVING              WEL IN MODEL EX2              PACKAGE EX2             CONNECTED TO MODEL EX2              PACKAGE WEL_0            ON UNIT   1014 AT TIME STEP     17, STRESS PERIOD      2

 HEAD WILL BE SAVED ON UNIT 1015 AT END OF TIME STEP   17, STRESS PERIOD    2
 UBDSV1 SAVING           STO-SS ON UNIT   1014 AT TIME STEP     18, STRESS PERIOD      2
 UBDSV1 SAVING           STO-SY ON UNIT   1014 AT TIME STEP     18, STRESS PERIOD      2
 UBDSV1 SAVING     FLOW-JA-FACE ON UNIT   1014 AT TIME STEP     18, STRESS PERIOD      2
 UBDSV06 SAVING              WEL IN MODEL EX2              PACKAGE EX2             CONNECTED TO MODEL EX2              PACKAGE WEL_0            ON UNIT   1014 AT TIME STEP     18, STRESS PERIOD      2

 HEAD WILL BE SAVED ON UNIT 1015 AT END OF TIME STEP   18, STRESS PERIOD    2
 UBDSV1 SAVING           STO-SS ON UNIT   1014 AT TIME STEP     19, STRESS PERIOD      2
 UBDSV1 SAVING           STO-SY ON UNIT   1014 AT TIME STEP     19, STRESS PERIOD      2
 UBDSV1 SAVING     FLOW-JA-FACE ON UNIT   1014 AT TIME STEP     19, STRESS PERIOD      2
 UBDSV06 SAVING              WEL IN MODEL EX2              PACKAGE EX2             CONNECTED TO MODEL EX2              PACKAGE WEL_0            ON UNIT   1014 AT TIME STEP     19, STRESS PERIOD      2

 HEAD WILL BE SAVED ON UNIT 1015 AT END OF TIME STEP   19, STRESS PERIOD    2
 UBDSV1 SAVING           STO-SS ON UNIT   1014 AT TIME STEP     20, STRESS PERIOD      2
 UBDSV1 SAVING           STO-SY ON UNIT   1014 AT TIME STEP     20, STRESS PERIOD      2
 UBDSV1 SAVING     FLOW-JA-FACE ON UNIT   1014 AT TIME STEP     20, STRESS PERIOD      2
 UBDSV06 SAVING              WEL IN MODEL EX2              PACKAGE EX2             CONNECTED TO MODEL EX2              PACKAGE WEL_0            ON UNIT   1014 AT TIME STEP     20, STRESS PERIOD      2

 HEAD WILL BE SAVED ON UNIT 1015 AT END OF TIME STEP   20, STRESS PERIOD    2
 UBDSV1 SAVING           STO-SS ON UNIT   1014 AT TIME STEP     21, STRESS PERIOD      2
 UBDSV1 SAVING           STO-SY ON UNIT   1014 AT TIME STEP     21, STRESS PERIOD      2
 UBDSV1 SAVING     FLOW-JA-FACE ON UNIT   1014 AT TIME STEP     21, STRESS PERIOD      2
 UBDSV06 SAVING              WEL IN MODEL EX2              PACKAGE EX2             CONNECTED TO MODEL EX2              PACKAGE WEL_0            ON UNIT   1014 AT TIME STEP     21, STRESS PERIOD      2

 HEAD WILL BE SAVED ON UNIT 1015 AT END OF TIME STEP   21, STRESS PERIOD    2
 UBDSV1 SAVING           STO-SS ON UNIT   1014 AT TIME STEP     22, STRESS PERIOD      2
 UBDSV1 SAVING           STO-SY ON UNIT   1014 AT TIME STEP     22, STRESS PERIOD      2
 UBDSV1 SAVING     FLOW-JA-FACE ON UNIT   1014 AT TIME STEP     22, STRESS PERIOD      2
 UBDSV06 SAVING              WEL IN MODEL EX2              PACKAGE EX2             CONNECTED TO MODEL EX2              PACKAGE WEL_0            ON UNIT   1014 AT TIME STEP     22, STRESS PERIOD      2

 HEAD WILL BE SAVED ON UNIT 1015 AT END OF TIME STEP   22, STRESS PERIOD    2
 UBDSV1 SAVING           STO-SS ON UNIT   1014 AT TIME STEP     23, STRESS PERIOD      2
 UBDSV1 SAVING           STO-SY ON UNIT   1014 AT TIME STEP     23, STRESS PERIOD      2
 UBDSV1 SAVING     FLOW-JA-FACE ON UNIT   1014 AT TIME STEP     23, STRESS PERIOD      2
 UBDSV06 SAVING              WEL IN MODEL EX2              PACKAGE EX2             CONNECTED TO MODEL EX2              PACKAGE WEL_0            ON UNIT   1014 AT TIME STEP     23, STRESS PERIOD      2

 HEAD WILL BE SAVED ON UNIT 1015 AT END OF TIME STEP   23, STRESS PERIOD    2
 UBDSV1 SAVING           STO-SS ON UNIT   1014 AT TIME STEP     24, STRESS PERIOD      2
 UBDSV1 SAVING           STO-SY ON UNIT   1014 AT TIME STEP     24, STRESS PERIOD      2
 UBDSV1 SAVING     FLOW-JA-FACE ON UNIT   1014 AT TIME STEP     24, STRESS PERIOD      2
 UBDSV06 SAVING              WEL IN MODEL EX2              PACKAGE EX2             CONNECTED TO MODEL EX2              PACKAGE WEL_0            ON UNIT   1014 AT TIME STEP     24, STRESS PERIOD      2

 HEAD WILL BE SAVED ON UNIT 1015 AT END OF TIME STEP   24, STRESS PERIOD    2


  VOLUME BUDGET FOR ENTIRE MODEL AT END OF TIME STEP   24, STRESS PERIOD   2
  ---------------------------------------------------------------------------------------------------

     CUMULATIVE VOLUME      L**3       RATES FOR THIS TIME STEP      L**3/T          PACKAGE NAME    
     ------------------                 ------------------------                     ----------------

           IN:                                      IN:
           ---                                      ---
              STO-SS =          33.5711                STO-SS =       3.7541E-04     STORAGE         
              STO-SY =        3790.6914                STO-SY =       4.2909E-02     STORAGE         
                 WEL =           0.0000                   WEL =           0.0000     WEL_0           
                 CHD =        4400.8502                   CHD =       5.1904E-02     CHD_0           

            TOTAL IN =        8225.1128              TOTAL IN =       9.5188E-02

          OUT:                                     OUT:
          ----                                     ----
              STO-SS =       9.8875E-03                STO-SS =       5.8003E-08     STORAGE         
              STO-SY =           1.0894                STO-SY =       6.6262E-06     STORAGE         
                 WEL =        7776.0450                   WEL =       9.0000E-02     WEL_0           
                 CHD =         447.5248                   CHD =       5.1769E-03     CHD_0           

           TOTAL OUT =        8224.6691             TOTAL OUT =       9.5184E-02

            IN - OUT =           0.4437              IN - OUT =       4.1705E-06

 PERCENT DISCREPANCY =           0.01     PERCENT DISCREPANCY =           0.00




         TIME SUMMARY AT END OF TIME STEP   24 IN STRESS PERIOD    2
                    SECONDS     MINUTES      HOURS       DAYS        YEARS
                    -----------------------------------------------------------
   TIME STEP LENGTH  3600.0      60.000      1.0000     4.16667E-02 1.14077E-04
 STRESS PERIOD TIME  86400.      1440.0      24.000      1.0000     2.73785E-03
         TOTAL TIME  86401.      1440.0      24.000      1.0000     2.73788E-03
